REMARK  Name = 
REMARK  18 active torsions:
REMARK  status: ('A' for Active; 'I' for Inactive)
REMARK    1  A    between atoms: C_1  and  C_2
REMARK    2  A    between atoms: C_2  and  C_36
REMARK    3  A    between atoms: C_3  and  C_4
REMARK    4  A    between atoms: C_4  and  C_5
REMARK    5  A    between atoms: C_6  and  C_8
REMARK    6  A    between atoms: C_6  and  C_9
REMARK    7  A    between atoms: C_10  and  O_34
REMARK    8  A    between atoms: C_11  and  O_17
REMARK    9  A    between atoms: O_17  and  C_18
REMARK   10  A    between atoms: C_18  and  C_20
REMARK   11  A    between atoms: C_21  and  C_22
REMARK   12  A    between atoms: C_25  and  O_28
REMARK   13  A    between atoms: O_28  and  C_29
REMARK   14  A    between atoms: C_29  and  C_30
REMARK   15  A    between atoms: C_30  and  N_31
REMARK   16  A    between atoms: N_31  and  C_32
REMARK   17  A    between atoms: N_31  and  C_33
REMARK   18  A    between atoms: O_34  and  C_35
REMARK                            x       y       z     vdW  Elec       q    Type
REMARK                         _______ _______ _______ _____ _____    ______ ____
ROOT
ATOM      1  C   UNL     1      -0.924   3.323   5.586  0.00  0.00    +0.000 C 
ATOM      2  C   UNL     1      -2.287   2.908   6.072  0.00  0.00    +0.000 C 
ATOM      3  C   UNL     1      -2.624   4.308   5.467  0.00  0.00    +0.000 C 
ATOM      4  C   UNL     1      -2.484   5.538   6.451  0.00  0.00    +0.000 C 
ATOM      5  C   UNL     1      -1.078   5.768   6.890  0.00  0.00    +0.000 C 
ATOM      6  C   UNL     1      -0.327   5.237   5.787  0.00  0.00    +0.000 C 
ATOM      7  C   UNL     1       0.338   6.523   4.691  0.00  0.00    +0.000 C 
ATOM      8  O   UNL     1       1.057   5.655   5.465  0.00  0.00    +0.000 OA
ENDROOT
BRANCH   1  10
ATOM      9  C   UNL     1      -0.580   0.904   4.411  0.00  0.00    +0.000 C 
ATOM     10  C   UNL     1      -0.923   2.354   4.200  0.00  0.00    +0.000 C 
ATOM     11  O   UNL     1       0.426   1.754   3.958  0.00  0.00    +0.000 OA
ATOM     12  C   UNL     1      -1.647   2.943   2.766  0.00  0.00    +0.000 C 
BRANCH   9  13
ATOM     13  C   UNL     1      -1.022  -0.065   3.412  0.00  0.00    +0.000 C 
BRANCH  13  16
ATOM     14  C   UNL     1       0.957  -0.078   0.063  0.00  0.00    +0.000 C 
ATOM     15  C   UNL     1       0.440  -0.556   1.389  0.00  0.00    +0.000 C 
ATOM     16  C   UNL     1      -0.435   0.186   2.057  0.00  0.00    +0.000 C 
ATOM     17  C   UNL     1       0.898  -1.849   1.943  0.00  0.00    +0.000 C 
ENDBRANCH  13  16
ENDBRANCH   9  13
ENDBRANCH   1  10
BRANCH   2  18
ATOM     18  O   UNL     1      -2.846   1.687   5.562  0.00  0.00    +0.000 OA
ATOM     19  C   UNL     1      -4.254   1.672   5.517  0.00  0.00    +0.000 C 
ENDBRANCH   2  18
BRANCH   3  20
ATOM     20  O   UNL     1      -1.358   4.637   4.197  0.00  0.00    +0.000 OA
BRANCH  20  21
ATOM     21  C   UNL     1       0.376   4.108   4.069  0.00  0.00    +0.000 C 
ATOM     22  O   UNL     1       0.882   4.167   2.991  0.00  0.00    +0.000 OA
BRANCH  21  23
ATOM     23  C   UNL     1       1.312   3.496   5.692  0.00  0.00    +0.000 C 
ATOM     24  C   UNL     1       0.976   3.401   7.081  0.00  0.00    +0.000 C 
BRANCH  24  25
ATOM     25  C   UNL     1       0.987   4.417   8.272  0.00  0.00    +0.000 A 
ATOM     26  C   UNL     1       1.355   5.788   8.227  0.00  0.00    +0.000 A 
ATOM     27  C   UNL     1       1.485   6.579   9.387  0.00  0.00    +0.000 A 
ATOM     28  C   UNL     1       1.315   5.949  10.619  0.00  0.00    +0.000 A 
ATOM     29  C   UNL     1       0.591   4.743  10.671  0.00  0.00    +0.000 A 
ATOM     30  C   UNL     1       0.414   3.994   9.495  0.00  0.00    +0.000 A 
BRANCH  28  31
ATOM     31  O   UNL     1       2.228   6.087  11.666  0.00  0.00    +0.000 OA
BRANCH  31  32
ATOM     32  C   UNL     1       3.445   6.859  11.467  0.00  0.00    +0.000 C 
BRANCH  32  33
ATOM     33  C   UNL     1       4.643   6.340  10.552  0.00  0.00    +0.000 C 
BRANCH  33  34
ATOM     34  N   UNL     1       4.289   6.006   9.176  0.00  0.00    +0.000 NA
ATOM     35  C   UNL     1       5.318   5.866   8.172  0.00  0.00    +0.000 C 
ATOM     36  C   UNL     1       3.660   4.699   9.171  0.00  0.00    +0.000 C 
ENDBRANCH  33  34
ENDBRANCH  32  33
ENDBRANCH  31  32
ENDBRANCH  28  31
ENDBRANCH  24  25
ENDBRANCH  21  23
ENDBRANCH  20  21
ENDBRANCH   3  20
TORSDOF 12
