REMARK  Name = 
REMARK  13 active torsions:
REMARK  status: ('A' for Active; 'I' for Inactive)
REMARK    1  A    between atoms: CD1_1  and  CG_2
REMARK    2  A    between atoms: CG_2  and  CD2_3
REMARK    3  A    between atoms: CG_2  and  CB_4
REMARK    4  A    between atoms: CB_4  and  CA_5
REMARK    5  A    between atoms: CA_5  and  C_6
REMARK    6  A    between atoms: CA_5  and  N_9
REMARK    7  A    between atoms: C_6  and  OXT_8
REMARK    8  A    between atoms: C_10  and  C_12
REMARK    9  A    between atoms: C_12  and  C_13
REMARK   10  A    between atoms: C_12  and  O_22
REMARK   11  A    between atoms: C_13  and  C_14
REMARK   12  A    between atoms: C_13  and  N_21
REMARK   13  A    between atoms: C_14  and  C_15
REMARK                            x       y       z     vdW  Elec       q    Type
REMARK                         _______ _______ _______ _____ _____    ______ ____
ROOT
ATOM      1  C   UNK A   0      -3.312   1.242   2.046  0.00  0.00    +0.000 C 
ENDROOT
BRANCH   1   3
ATOM      2  N   LEU A   1      -0.784   1.174   1.929  0.00  0.00    +0.000 N 
ATOM      3  C   UNK A   0      -1.964   0.691   2.508  0.00  0.00    +0.000 C 
ATOM      4  O   UNK A   0      -1.909  -0.247   3.310  0.00  0.00    +0.000 OA
ATOM      5  H   LEU A   1       0.017   0.615   2.203  0.00  0.00    +0.000 HD
BRANCH   2   6
ATOM      6  CA  LEU A   1      -0.392   2.500   1.411  0.00  0.00    +0.000 C 
BRANCH   6   7
ATOM      7  C   LEU A   1       0.245   2.603   0.003  0.00  0.00    +0.000 C 
ATOM      8  O   LEU A   1       0.612   1.706  -0.698  0.00  0.00    +0.000 OA
BRANCH   7   9
ATOM      9  OXT LEU A   1       0.078   3.871  -0.492  0.00  0.00    +0.000 OA
ATOM     10  HXT LEU A   1       0.329   3.892  -1.435  0.00  0.00    +0.000 HD
ENDBRANCH   7   9
ENDBRANCH   6   7
BRANCH   6  11
ATOM     11  CB  LEU A   1       0.087   3.302   2.591  0.00  0.00    +0.000 C 
BRANCH  11  13
ATOM     12  CD1 LEU A   1      -1.654   5.205   2.310  0.00  0.00    +0.000 C 
ATOM     13  CG  LEU A   1      -0.167   4.796   2.363  0.00  0.00    +0.000 C 
ATOM     14  CD2 LEU A   1       0.544   5.547   3.460  0.00  0.00    +0.000 C 
ENDBRANCH  11  13
ENDBRANCH   6  11
ENDBRANCH   2   6
ENDBRANCH   1   3
BRANCH   1  15
ATOM     15  O   UNK A   0      -3.055   2.629   2.077  0.00  0.00    +0.000 OA
ATOM     16  H   UNK A   0      -2.598   2.607   1.230  0.00  0.00    +0.000 HD
ENDBRANCH   1  15
BRANCH   1  17
ATOM     17  C   UNK A   0      -3.793   1.008   0.565  0.00  0.00    +0.000 C 
BRANCH  17  18
ATOM     18  N   UNK A   0      -5.119   0.397   0.627  0.00  0.00    +0.000 NA
ATOM     19  H   UNK A   0      -5.518   0.326  -0.304  0.00  0.00    +0.000 HD
ATOM     20  H   UNK A   0      -4.995  -0.547   0.989  0.00  0.00    +0.000 HD
ENDBRANCH  17  18
BRANCH  17  21
ATOM     21  C   UNK A   0      -2.833   0.354  -0.500  0.00  0.00    +0.000 C 
BRANCH  21  22
ATOM     22  C   UNK A   0      -2.455  -1.080  -0.221  0.00  0.00    +0.000 A 
ATOM     23  C   UNK A   0      -1.501  -1.399   0.732  0.00  0.00    +0.000 A 
ATOM     24  C   UNK A   0      -1.531  -2.572   1.467  0.00  0.00    +0.000 A 
ATOM     25  C   UNK A   0      -2.277  -3.613   0.980  0.00  0.00    +0.000 A 
ATOM     26  C   UNK A   0      -2.997  -3.422  -0.201  0.00  0.00    +0.000 A 
ATOM     27  C   UNK A   0      -3.099  -2.156  -0.798  0.00  0.00    +0.000 A 
ENDBRANCH  21  22
ENDBRANCH  17  21
ENDBRANCH   1  17
TORSDOF 11
