REMARK  Name = 
REMARK  16 active torsions:
REMARK  status: ('A' for Active; 'I' for Inactive)
REMARK    1  A    between atoms: C_1  and  C_2
REMARK    2  A    between atoms: C_2  and  C_33
REMARK    3  A    between atoms: C_3  and  C_4
REMARK    4  A    between atoms: C_4  and  C_5
REMARK    5  A    between atoms: C_6  and  C_8
REMARK    6  A    between atoms: C_6  and  C_9
REMARK    7  A    between atoms: C_10  and  O_31
REMARK    8  A    between atoms: C_11  and  O_17
REMARK    9  A    between atoms: O_17  and  C_18
REMARK   10  A    between atoms: C_18  and  C_20
REMARK   11  A    between atoms: C_21  and  C_22
REMARK   12  A    between atoms: C_23  and  C_24
REMARK   13  A    between atoms: C_25  and  C_26
REMARK   14  A    between atoms: C_27  and  C_28
REMARK   15  A    between atoms: C_28  and  O_30
REMARK   16  A    between atoms: O_31  and  C_32
REMARK                            x       y       z     vdW  Elec       q    Type
REMARK                         _______ _______ _______ _____ _____    ______ ____
ROOT
ATOM      1  C   UNL     1      -0.901   3.305   5.580  0.00  0.00    +0.000 C 
ATOM      2  C   UNL     1      -2.274   2.903   6.074  0.00  0.00    +0.000 C 
ATOM      3  C   UNL     1      -2.609   4.330   5.488  0.00  0.00    +0.000 C 
ATOM      4  C   UNL     1      -2.401   5.584   6.477  0.00  0.00    +0.000 C 
ATOM      5  C   UNL     1      -0.965   5.763   6.889  0.00  0.00    +0.000 C 
ATOM      6  C   UNL     1      -0.263   5.228   5.774  0.00  0.00    +0.000 C 
ATOM      7  C   UNL     1       0.392   6.495   4.691  0.00  0.00    +0.000 C 
ATOM      8  O   UNL     1       1.144   5.639   5.461  0.00  0.00    +0.000 OA
ENDROOT
BRANCH   1  10
ATOM      9  C   UNL     1      -0.577   0.904   4.413  0.00  0.00    +0.000 C 
ATOM     10  C   UNL     1      -0.923   2.352   4.199  0.00  0.00    +0.000 C 
ATOM     11  O   UNL     1       0.435   1.747   3.965  0.00  0.00    +0.000 OA
ATOM     12  C   UNL     1      -1.636   2.954   2.765  0.00  0.00    +0.000 C 
BRANCH   9  13
ATOM     13  C   UNL     1      -1.017  -0.061   3.414  0.00  0.00    +0.000 C 
BRANCH  13  16
ATOM     14  C   UNL     1       0.956  -0.075   0.064  0.00  0.00    +0.000 C 
ATOM     15  C   UNL     1       0.440  -0.550   1.391  0.00  0.00    +0.000 C 
ATOM     16  C   UNL     1      -0.432   0.195   2.059  0.00  0.00    +0.000 C 
ATOM     17  C   UNL     1       0.894  -1.843   1.946  0.00  0.00    +0.000 C 
ENDBRANCH  13  16
ENDBRANCH   9  13
ENDBRANCH   1  10
BRANCH   2  18
ATOM     18  O   UNL     1      -2.845   1.689   5.562  0.00  0.00    +0.000 OA
ATOM     19  C   UNL     1      -4.252   1.677   5.517  0.00  0.00    +0.000 C 
ENDBRANCH   2  18
BRANCH   3  20
ATOM     20  O   UNL     1      -1.343   4.632   4.215  0.00  0.00    +0.000 OA
BRANCH  20  21
ATOM     21  C   UNL     1       0.394   4.076   4.107  0.00  0.00    +0.000 C 
ATOM     22  O   UNL     1       0.905   4.130   3.032  0.00  0.00    +0.000 OA
BRANCH  21  23
ATOM     23  C   UNL     1       1.289   3.479   5.787  0.00  0.00    +0.000 C 
ATOM     24  C   UNL     1       0.877   3.372   7.171  0.00  0.00    +0.000 C 
BRANCH  24  25
ATOM     25  C   UNL     1       1.144   4.273   8.369  0.00  0.00    +0.000 C 
ATOM     26  C   UNL     1       0.293   4.582   9.410  0.00  0.00    +0.000 C 
BRANCH  26  27
ATOM     27  C   UNL     1       0.768   5.221  10.621  0.00  0.00    +0.000 C 
ATOM     28  C   UNL     1       0.072   5.360  11.767  0.00  0.00    +0.000 C 
BRANCH  28  29
ATOM     29  C   UNL     1       0.771   5.682  13.000  0.00  0.00    +0.000 C 
ATOM     30  C   UNL     1       0.187   5.771  14.204  0.00  0.00    +0.000 C 
BRANCH  30  31
ATOM     31  C   UNL     1       0.920   6.083  15.446  0.00  0.00    +0.000 C 
ATOM     32  O   UNL     1       0.392   6.190  16.538  0.00  0.00    +0.000 OA
BRANCH  31  33
ATOM     33  O   UNL     1       2.242   6.251  15.272  0.00  0.00    +0.000 OA
ATOM     34  H   UNL     1       2.602   6.461  16.160  0.00  0.00    +0.000 HD
ENDBRANCH  31  33
ENDBRANCH  30  31
ENDBRANCH  28  29
ENDBRANCH  26  27
ENDBRANCH  24  25
ENDBRANCH  21  23
ENDBRANCH  20  21
ENDBRANCH   3  20
TORSDOF 12
