REMARK  Name = 
REMARK  15 active torsions:
REMARK  status: ('A' for Active; 'I' for Inactive)
REMARK    1  A    between atoms: C_1  and  C_2
REMARK    2  A    between atoms: C_2  and  C_3
REMARK    3  A    between atoms: C_2  and  C_4
REMARK    4  A    between atoms: C_4  and  C_5
REMARK    5  A    between atoms: C_4  and  N_8
REMARK    6  A    between atoms: C_9  and  O_11
REMARK    7  A    between atoms: O_11  and  C_12
REMARK    8  A    between atoms: C_18  and  C_22
REMARK    9  A    between atoms: C_19  and  O_20
REMARK   10  A    between atoms: O_20  and  C_21
REMARK   11  A    between atoms: C_22  and  C_30
REMARK   12  A    between atoms: C_23  and  C_25
REMARK   13  A    between atoms: C_25  and  C_26
REMARK   14  A    between atoms: C_27  and  C_28
REMARK   15  A    between atoms: C_27  and  C_29
REMARK                            x       y       z     vdW  Elec       q    Type
REMARK                         _______ _______ _______ _____ _____    ______ ____
ROOT
ATOM      1  C   UNL     1      -3.684   2.150   3.732  0.00  0.00    +0.000 C 
ATOM      2  C   UNL     1      -5.039   1.559   3.408  0.00  0.00    +0.000 C 
ATOM      3  C   UNL     1      -5.219   1.454   1.889  0.00  0.00    +0.000 C 
ATOM      4  C   UNL     1      -5.082   2.793   1.207  0.00  0.00    +0.000 C 
ATOM      5  C   UNL     1      -5.538   2.877  -0.232  0.00  0.00    +0.000 C 
ATOM      6  O   UNL     1      -6.276   3.477   0.853  0.00  0.00    +0.000 OA
ATOM      7  C   UNL     1      -3.894   3.580   1.642  0.00  0.00    +0.000 C 
ATOM      8  C   UNL     1      -3.708   3.572   3.199  0.00  0.00    +0.000 C 
ENDROOT
BRANCH   7   9
ATOM      9  C   UNL     1      -3.523   4.928   1.065  0.00  0.00    +0.000 C 
ATOM     10  C   UNL     1      -4.552   6.158   1.325  0.00  0.00    +0.000 C 
ATOM     11  O   UNL     1      -4.212   5.638   0.038  0.00  0.00    +0.000 OA
ATOM     12  C   UNL     1      -2.005   4.895   0.854  0.00  0.00    +0.000 C 
BRANCH  10  13
ATOM     13  C   UNL     1      -4.175   7.590   1.688  0.00  0.00    +0.000 C 
BRANCH  13  14
ATOM     14  C   UNL     1      -3.971   7.811   3.196  0.00  0.00    +0.000 C 
ATOM     15  C   UNL     1      -2.778   8.088   3.787  0.00  0.00    +0.000 C 
ATOM     16  C   UNL     1      -2.539   7.808   5.281  0.00  0.00    +0.000 C 
ATOM     17  C   UNL     1      -1.542   8.288   2.934  0.00  0.00    +0.000 C 
ENDBRANCH  13  14
ENDBRANCH  10  13
ENDBRANCH   7   9
BRANCH   8  18
ATOM     18  O   UNL     1      -2.432   4.018   3.658  0.00  0.00    +0.000 OA
ATOM     19  C   UNL     1      -2.380   5.396   3.718  0.00  0.00    +0.000 C 
ENDBRANCH   8  18
BRANCH   1  20
ATOM     20  O   UNL     1      -2.633   1.411   3.054  0.00  0.00    +0.000 OA
BRANCH  20  22
ATOM     21  N   UNL     1      -1.586  -0.587   2.798  0.00  0.00    +0.000 N 
ATOM     22  C   UNL     1      -2.338   0.210   3.613  0.00  0.00    +0.000 C 
ATOM     23  O   UNL     1      -2.757  -0.185   4.671  0.00  0.00    +0.000 OA
ATOM     24  H   UNL     1      -1.315  -1.442   3.265  0.00  0.00    +0.000 HD
BRANCH  21  25
ATOM     25  C   UNL     1      -1.045  -0.345   1.455  0.00  0.00    +0.000 C 
BRANCH  25  26
ATOM     26  C   UNL     1       0.514  -0.253   1.561  0.00  0.00    +0.000 C 
ATOM     27  O   UNL     1       1.140  -0.526   2.583  0.00  0.00    +0.000 OA
ATOM     28  N   UNL     1       1.224   0.086   0.436  0.00  0.00    +0.000 N 
ATOM     29  H   UNL     1       0.820   0.250  -0.475  0.00  0.00    +0.000 HD
ATOM     30  H   UNL     1       2.213  -0.143   0.449  0.00  0.00    +0.000 HD
ENDBRANCH  25  26
BRANCH  25  32
ATOM     31  C   UNL     1      -0.446  -2.023  -0.436  0.00  0.00    +0.000 C 
ATOM     32  C   UNL     1      -1.552  -1.449   0.452  0.00  0.00    +0.000 C 
ATOM     33  C   UNL     1      -2.240  -2.653   1.114  0.00  0.00    +0.000 C 
ENDBRANCH  25  32
ENDBRANCH  21  25
ENDBRANCH  20  22
ENDBRANCH   1  20
TORSDOF 9
