REMARK  Name = 
REMARK  11 active torsions:
REMARK  status: ('A' for Active; 'I' for Inactive)
REMARK    1  A    between atoms: C_1  and  C_2
REMARK    2  A    between atoms: C_2  and  C_27
REMARK    3  A    between atoms: C_3  and  C_4
REMARK    4  A    between atoms: C_4  and  C_5
REMARK    5  A    between atoms: C_6  and  C_8
REMARK    6  A    between atoms: C_6  and  C_9
REMARK    7  A    between atoms: C_10  and  O_25
REMARK    8  A    between atoms: C_11  and  O_17
REMARK    9  A    between atoms: O_17  and  C_18
REMARK   10  A    between atoms: C_21  and  C_23
REMARK   11  A    between atoms: O_25  and  C_26
REMARK                            x       y       z     vdW  Elec       q    Type
REMARK                         _______ _______ _______ _____ _____    ______ ____
ROOT
ATOM      1  C   UNL     1      -0.991   3.362   5.312  0.00  0.00    +0.000 C 
ATOM      2  C   UNL     1      -2.268   2.791   5.800  0.00  0.00    +0.000 C 
ATOM      3  C   UNL     1      -2.459   4.447   5.241  0.00  0.00    +0.000 C 
ATOM      4  C   UNL     1      -1.962   5.900   6.240  0.00  0.00    +0.000 C 
ATOM      5  C   UNL     1      -0.589   5.852   6.856  0.00  0.00    +0.000 C 
ATOM      6  C   UNL     1      -0.123   5.184   5.678  0.00  0.00    +0.000 C 
ATOM      7  C   UNL     1       0.625   6.351   4.686  0.00  0.00    +0.000 C 
ATOM      8  O   UNL     1       1.409   5.439   5.388  0.00  0.00    +0.000 OA
ENDROOT
BRANCH   1  10
ATOM      9  C   UNL     1      -0.512   0.899   4.370  0.00  0.00    +0.000 C 
ATOM     10  C   UNL     1      -0.854   2.343   4.072  0.00  0.00    +0.000 C 
ATOM     11  O   UNL     1       0.508   1.727   3.910  0.00  0.00    +0.000 OA
ATOM     12  C   UNL     1      -1.568   2.927   2.674  0.00  0.00    +0.000 C 
BRANCH   9  13
ATOM     13  C   UNL     1      -0.995  -0.068   3.400  0.00  0.00    +0.000 C 
BRANCH  13  16
ATOM     14  C   UNL     1       0.958  -0.072   0.059  0.00  0.00    +0.000 C 
ATOM     15  C   UNL     1       0.444  -0.549   1.381  0.00  0.00    +0.000 C 
ATOM     16  C   UNL     1      -0.433   0.189   2.043  0.00  0.00    +0.000 C 
ATOM     17  C   UNL     1       0.891  -1.837   1.948  0.00  0.00    +0.000 C 
ENDBRANCH  13  16
ENDBRANCH   9  13
ENDBRANCH   1  10
BRANCH   2  18
ATOM     18  O   UNL     1      -2.884   1.614   5.281  0.00  0.00    +0.000 OA
ATOM     19  C   UNL     1      -4.276   1.614   5.449  0.00  0.00    +0.000 C 
ENDBRANCH   2  18
BRANCH   3  20
ATOM     20  O   UNL     1      -1.210   4.728   3.997  0.00  0.00    +0.000 OA
BRANCH  20  21
ATOM     21  C   UNL     1       0.419   4.025   4.123  0.00  0.00    +0.000 C 
ATOM     22  O   UNL     1       1.083   4.079   3.023  0.00  0.00    +0.000 OA
ATOM     23  N   UNL     1       0.875   3.415   5.767  0.00  0.00    +0.000 N 
ATOM     24  C   UNL     1       0.141   3.511   7.416  0.00  0.00    +0.000 C 
ATOM     25  O   UNL     1       0.998   3.810   8.266  0.00  0.00    +0.000 OA
ATOM     26  H   UNL     1       1.833   3.790   5.852  0.00  0.00    +0.000 HD
BRANCH  24  27
ATOM     27  C   UNL     1      -1.755   3.687   8.055  0.00  0.00    +0.000 C 
ATOM     28 CL   UNL     1      -3.674   4.538   7.600  0.00  0.00    +0.000 Cl
ENDBRANCH  24  27
ENDBRANCH  20  21
ENDBRANCH   3  20
TORSDOF 7
