MODEL 1
REMARK VINA RESULT:    -6.494      0.000      0.000
REMARK INTER + INTRA:         -10.816
REMARK INTER:                 -10.100
REMARK INTRA:                  -0.715
REMARK UNBOUND:                -0.715
REMARK  Name = 
REMARK  13 active torsions:
REMARK  status: ('A' for Active; 'I' for Inactive)
REMARK    1  A    between atoms: CD1_1  and  CG_2
REMARK    2  A    between atoms: CG_2  and  CD2_3
REMARK    3  A    between atoms: CG_2  and  CB_4
REMARK    4  A    between atoms: CB_4  and  CA_5
REMARK    5  A    between atoms: CA_5  and  C_6
REMARK    6  A    between atoms: CA_5  and  N_9
REMARK    7  A    between atoms: C_6  and  OXT_8
REMARK    8  A    between atoms: C_10  and  C_12
REMARK    9  A    between atoms: C_12  and  C_13
REMARK   10  A    between atoms: C_12  and  O_22
REMARK   11  A    between atoms: C_13  and  C_14
REMARK   12  A    between atoms: C_13  and  N_21
REMARK   13  A    between atoms: C_14  and  C_15
REMARK                            x       y       z     vdW  Elec       q    Type
REMARK                         _______ _______ _______ _____ _____    ______ ____
ROOT
ATOM      1  C   UNK A   0      16.967  27.734  18.903  0.00  0.00    +0.000 C 
ENDROOT
BRANCH   1   3
ATOM      2  N   LEU A   1      17.398  29.160  20.950  0.00  0.00    +0.000 N 
ATOM      3  C   UNK A   0      17.734  28.033  20.190  0.00  0.00    +0.000 C 
ATOM      4  O   UNK A   0      18.712  27.351  20.512  0.00  0.00    +0.000 OA
ATOM      5  H   LEU A   1      18.083  29.331  21.679  0.00  0.00    +0.000 HD
BRANCH   2   6
ATOM      6  CA  LEU A   1      16.118  29.848  21.210  0.00  0.00    +0.000 C 
BRANCH   6   7
ATOM      7  C   LEU A   1      14.832  29.004  21.400  0.00  0.00    +0.000 C 
ATOM      8  O   LEU A   1      13.818  29.070  20.769  0.00  0.00    +0.000 OA
BRANCH   7   9
ATOM      9  OXT LEU A   1      15.093  27.937  22.220  0.00  0.00    +0.000 OA
ATOM     10  HXT LEU A   1      15.751  28.192  22.894  0.00  0.00    +0.000 HD
ENDBRANCH   7   9
ENDBRANCH   6   7
BRANCH   6  11
ATOM     11  CB  LEU A   1      16.150  31.134  20.429  0.00  0.00    +0.000 C 
BRANCH  11  13
ATOM     12  CD1 LEU A   1      16.528  33.373  21.684  0.00  0.00    +0.000 C 
ATOM     13  CG  LEU A   1      15.536  32.274  21.249  0.00  0.00    +0.000 C 
ATOM     14  CD2 LEU A   1      14.421  32.871  20.428  0.00  0.00    +0.000 C 
ENDBRANCH  11  13
ENDBRANCH   6  11
ENDBRANCH   2   6
ENDBRANCH   1   3
BRANCH   1  15
ATOM     15  O   UNK A   0      15.764  27.215  19.426  0.00  0.00    +0.000 OA
ATOM     16  H   UNK A   0      16.211  26.830  20.187  0.00  0.00    +0.000 HD
ENDBRANCH   1  15
BRANCH   1  17
ATOM     17  C   UNK A   0      16.470  28.917  17.990  0.00  0.00    +0.000 C 
BRANCH  17  18
ATOM     18  N   UNK A   0      15.011  28.851  17.945  0.00  0.00    +0.000 NA
ATOM     19  H   UNK A   0      14.607  29.639  18.442  0.00  0.00    +0.000 HD
ATOM     20  H   UNK A   0      14.739  28.925  16.966  0.00  0.00    +0.000 HD
ENDBRANCH  17  18
BRANCH  17  21
ATOM     21  C   UNK A   0      17.144  29.194  16.593  0.00  0.00    +0.000 C 
BRANCH  21  22
ATOM     22  C   UNK A   0      17.623  30.610  16.387  0.00  0.00    +0.000 A 
ATOM     23  C   UNK A   0      18.812  30.878  15.728  0.00  0.00    +0.000 A 
ATOM     24  C   UNK A   0      19.019  32.024  14.978  0.00  0.00    +0.000 A 
ATOM     25  C   UNK A   0      18.196  33.095  15.207  0.00  0.00    +0.000 A 
ATOM     26  C   UNK A   0      17.172  32.959  16.147  0.00  0.00    +0.000 A 
ATOM     27  C   UNK A   0      16.874  31.718  16.730  0.00  0.00    +0.000 A 
ENDBRANCH  21  22
ENDBRANCH  17  21
ENDBRANCH   1  17
TORSDOF 11
ENDMDL
MODEL 2
REMARK VINA RESULT:    -6.462      1.397      2.007
REMARK INTER + INTRA:         -10.765
REMARK INTER:                 -10.167
REMARK INTRA:                  -0.599
REMARK UNBOUND:                -0.715
REMARK  Name = 
REMARK  13 active torsions:
REMARK  status: ('A' for Active; 'I' for Inactive)
REMARK    1  A    between atoms: CD1_1  and  CG_2
REMARK    2  A    between atoms: CG_2  and  CD2_3
REMARK    3  A    between atoms: CG_2  and  CB_4
REMARK    4  A    between atoms: CB_4  and  CA_5
REMARK    5  A    between atoms: CA_5  and  C_6
REMARK    6  A    between atoms: CA_5  and  N_9
REMARK    7  A    between atoms: C_6  and  OXT_8
REMARK    8  A    between atoms: C_10  and  C_12
REMARK    9  A    between atoms: C_12  and  C_13
REMARK   10  A    between atoms: C_12  and  O_22
REMARK   11  A    between atoms: C_13  and  C_14
REMARK   12  A    between atoms: C_13  and  N_21
REMARK   13  A    between atoms: C_14  and  C_15
REMARK                            x       y       z     vdW  Elec       q    Type
REMARK                         _______ _______ _______ _____ _____    ______ ____
ROOT
ATOM      1  C   UNK A   0      18.137  27.955  18.144  0.00  0.00    +0.000 C 
ENDROOT
BRANCH   1   3
ATOM      2  N   LEU A   1      17.403  29.353  20.124  0.00  0.00    +0.000 N 
ATOM      3  C   UNK A   0      18.255  28.366  19.611  0.00  0.00    +0.000 C 
ATOM      4  O   UNK A   0      19.159  27.914  20.320  0.00  0.00    +0.000 OA
ATOM      5  H   LEU A   1      17.693  29.644  21.051  0.00  0.00    +0.000 HD
BRANCH   2   6
ATOM      6  CA  LEU A   1      16.002  29.715  19.834  0.00  0.00    +0.000 C 
BRANCH   6   7
ATOM      7  C   LEU A   1      14.964  28.591  19.594  0.00  0.00    +0.000 C 
ATOM      8  O   LEU A   1      14.307  28.402  18.613  0.00  0.00    +0.000 OA
BRANCH   7   9
ATOM      9  OXT LEU A   1      15.088  27.628  20.564  0.00  0.00    +0.000 OA
ATOM     10  HXT LEU A   1      15.908  27.119  20.418  0.00  0.00    +0.000 HD
ENDBRANCH   7   9
ENDBRANCH   6   7
BRANCH   6  11
ATOM     11  CB  LEU A   1      16.041  30.984  19.024  0.00  0.00    +0.000 C 
BRANCH  11  13
ATOM     12  CD1 LEU A   1      13.666  31.996  19.284  0.00  0.00    +0.000 C 
ATOM     13  CG  LEU A   1      15.159  32.059  19.669  0.00  0.00    +0.000 C 
ATOM     14  CD2 LEU A   1      15.320  31.938  21.163  0.00  0.00    +0.000 C 
ENDBRANCH  11  13
ENDBRANCH   6  11
ENDBRANCH   2   6
ENDBRANCH   1   3
BRANCH   1  15
ATOM     15  O   UNK A   0      16.926  27.231  18.169  0.00  0.00    +0.000 OA
ATOM     16  H   UNK A   0      17.195  26.725  18.942  0.00  0.00    +0.000 HD
ENDBRANCH   1  15
BRANCH   1  17
ATOM     17  C   UNK A   0      17.870  29.045  17.039  0.00  0.00    +0.000 C 
BRANCH  17  18
ATOM     18  N   UNK A   0      16.572  28.749  16.437  0.00  0.00    +0.000 NA
ATOM     19  H   UNK A   0      15.994  29.583  16.416  0.00  0.00    +0.000 HD
ATOM     20  H   UNK A   0      16.749  28.465  15.475  0.00  0.00    +0.000 HD
ENDBRANCH  17  18
BRANCH  17  21
ATOM     21  C   UNK A   0      18.989  29.429  15.999  0.00  0.00    +0.000 C 
BRANCH  21  22
ATOM     22  C   UNK A   0      19.120  30.906  15.719  0.00  0.00    +0.000 A 
ATOM     23  C   UNK A   0      18.016  31.743  15.750  0.00  0.00    +0.000 A 
ATOM     24  C   UNK A   0      18.090  33.076  16.117  0.00  0.00    +0.000 A 
ATOM     25  C   UNK A   0      19.316  33.686  16.068  0.00  0.00    +0.000 A 
ATOM     26  C   UNK A   0      20.425  32.924  15.694  0.00  0.00    +0.000 A 
ATOM     27  C   UNK A   0      20.335  31.533  15.530  0.00  0.00    +0.000 A 
ENDBRANCH  21  22
ENDBRANCH  17  21
ENDBRANCH   1  17
TORSDOF 11
ENDMDL
MODEL 3
REMARK VINA RESULT:    -6.322     21.178     23.226
REMARK INTER + INTRA:         -10.547
REMARK INTER:                  -9.144
REMARK INTRA:                  -1.403
REMARK UNBOUND:                -0.715
REMARK  Name = 
REMARK  13 active torsions:
REMARK  status: ('A' for Active; 'I' for Inactive)
REMARK    1  A    between atoms: CD1_1  and  CG_2
REMARK    2  A    between atoms: CG_2  and  CD2_3
REMARK    3  A    between atoms: CG_2  and  CB_4
REMARK    4  A    between atoms: CB_4  and  CA_5
REMARK    5  A    between atoms: CA_5  and  C_6
REMARK    6  A    between atoms: CA_5  and  N_9
REMARK    7  A    between atoms: C_6  and  OXT_8
REMARK    8  A    between atoms: C_10  and  C_12
REMARK    9  A    between atoms: C_12  and  C_13
REMARK   10  A    between atoms: C_12  and  O_22
REMARK   11  A    between atoms: C_13  and  C_14
REMARK   12  A    between atoms: C_13  and  N_21
REMARK   13  A    between atoms: C_14  and  C_15
REMARK                            x       y       z     vdW  Elec       q    Type
REMARK                         _______ _______ _______ _____ _____    ______ ____
ROOT
ATOM      1  C   UNK A   0      33.931  15.501  22.498  0.00  0.00    +0.000 C 
ENDROOT
BRANCH   1   3
ATOM      2  N   LEU A   1      34.269  13.682  24.226  0.00  0.00    +0.000 N 
ATOM      3  C   UNK A   0      34.805  14.757  23.507  0.00  0.00    +0.000 C 
ATOM      4  O   UNK A   0      35.944  15.157  23.768  0.00  0.00    +0.000 OA
ATOM      5  H   LEU A   1      34.894  13.387  24.969  0.00  0.00    +0.000 HD
BRANCH   2   6
ATOM      6  CA  LEU A   1      33.273  12.646  23.886  0.00  0.00    +0.000 C 
BRANCH   6   7
ATOM      7  C   LEU A   1      33.456  11.820  22.589  0.00  0.00    +0.000 C 
ATOM      8  O   LEU A   1      33.679  12.231  21.489  0.00  0.00    +0.000 OA
BRANCH   7   9
ATOM      9  OXT LEU A   1      33.619  10.494  22.901  0.00  0.00    +0.000 OA
ATOM     10  HXT LEU A   1      33.889  10.406  23.834  0.00  0.00    +0.000 HD
ENDBRANCH   7   9
ENDBRANCH   6   7
BRANCH   6  11
ATOM     11  CB  LEU A   1      31.938  13.158  24.354  0.00  0.00    +0.000 C 
BRANCH  11  13
ATOM     12  CD1 LEU A   1      29.537  12.250  23.977  0.00  0.00    +0.000 C 
ATOM     13  CG  LEU A   1      30.840  12.789  23.351  0.00  0.00    +0.000 C 
ATOM     14  CD2 LEU A   1      30.555  14.017  22.523  0.00  0.00    +0.000 C 
ENDBRANCH  11  13
ENDBRANCH   6  11
ENDBRANCH   2   6
ENDBRANCH   1   3
BRANCH   1  15
ATOM     15  O   UNK A   0      33.498  16.593  23.280  0.00  0.00    +0.000 OA
ATOM     16  H   UNK A   0      34.291  16.573  23.825  0.00  0.00    +0.000 HD
ENDBRANCH   1  15
BRANCH   1  17
ATOM     17  C   UNK A   0      34.590  16.203  21.252  0.00  0.00    +0.000 C 
BRANCH  17  18
ATOM     18  N   UNK A   0      35.513  17.217  21.757  0.00  0.00    +0.000 NA
ATOM     19  H   UNK A   0      35.006  17.925  22.279  0.00  0.00    +0.000 HD
ATOM     20  H   UNK A   0      36.148  16.747  22.400  0.00  0.00    +0.000 HD
ENDBRANCH  17  18
BRANCH  17  21
ATOM     21  C   UNK A   0      33.706  16.685  20.039  0.00  0.00    +0.000 C 
BRANCH  21  22
ATOM     22  C   UNK A   0      32.747  15.652  19.500  0.00  0.00    +0.000 A 
ATOM     23  C   UNK A   0      31.387  15.906  19.423  0.00  0.00    +0.000 A 
ATOM     24  C   UNK A   0      30.571  15.356  18.449  0.00  0.00    +0.000 A 
ATOM     25  C   UNK A   0      31.020  14.241  17.792  0.00  0.00    +0.000 A 
ATOM     26  C   UNK A   0      32.287  13.747  18.107  0.00  0.00    +0.000 A 
ATOM     27  C   UNK A   0      33.159  14.454  18.950  0.00  0.00    +0.000 A 
ENDBRANCH  21  22
ENDBRANCH  17  21
ENDBRANCH   1  17
TORSDOF 11
ENDMDL
MODEL 4
REMARK VINA RESULT:    -5.920     21.107     23.201
REMARK INTER + INTRA:          -9.923
REMARK INTER:                  -9.103
REMARK INTRA:                  -0.821
REMARK UNBOUND:                -0.715
REMARK  Name = 
REMARK  13 active torsions:
REMARK  status: ('A' for Active; 'I' for Inactive)
REMARK    1  A    between atoms: CD1_1  and  CG_2
REMARK    2  A    between atoms: CG_2  and  CD2_3
REMARK    3  A    between atoms: CG_2  and  CB_4
REMARK    4  A    between atoms: CB_4  and  CA_5
REMARK    5  A    between atoms: CA_5  and  C_6
REMARK    6  A    between atoms: CA_5  and  N_9
REMARK    7  A    between atoms: C_6  and  OXT_8
REMARK    8  A    between atoms: C_10  and  C_12
REMARK    9  A    between atoms: C_12  and  C_13
REMARK   10  A    between atoms: C_12  and  O_22
REMARK   11  A    between atoms: C_13  and  C_14
REMARK   12  A    between atoms: C_13  and  N_21
REMARK   13  A    between atoms: C_14  and  C_15
REMARK                            x       y       z     vdW  Elec       q    Type
REMARK                         _______ _______ _______ _____ _____    ______ ____
ROOT
ATOM      1  C   UNK A   0      33.804  15.327  22.780  0.00  0.00    +0.000 C 
ENDROOT
BRANCH   1   3
ATOM      2  N   LEU A   1      33.419  13.386  24.359  0.00  0.00    +0.000 N 
ATOM      3  C   UNK A   0      34.324  14.257  23.740  0.00  0.00    +0.000 C 
ATOM      4  O   UNK A   0      35.518  14.220  24.054  0.00  0.00    +0.000 OA
ATOM      5  H   LEU A   1      33.871  12.842  25.087  0.00  0.00    +0.000 HD
BRANCH   2   6
ATOM      6  CA  LEU A   1      32.145  12.784  23.918  0.00  0.00    +0.000 C 
BRANCH   6   7
ATOM      7  C   LEU A   1      31.525  13.232  22.571  0.00  0.00    +0.000 C 
ATOM      8  O   LEU A   1      30.843  14.194  22.367  0.00  0.00    +0.000 OA
BRANCH   7   9
ATOM      9  OXT LEU A   1      32.096  12.532  21.540  0.00  0.00    +0.000 OA
ATOM     10  HXT LEU A   1      31.547  11.755  21.325  0.00  0.00    +0.000 HD
ENDBRANCH   7   9
ENDBRANCH   6   7
BRANCH   6  11
ATOM     11  CB  LEU A   1      31.329  12.539  25.158  0.00  0.00    +0.000 C 
BRANCH  11  13
ATOM     12  CD1 LEU A   1      29.419  10.979  24.352  0.00  0.00    +0.000 C 
ATOM     13  CG  LEU A   1      30.738  11.125  25.141  0.00  0.00    +0.000 C 
ATOM     14  CD2 LEU A   1      31.789  10.203  24.578  0.00  0.00    +0.000 C 
ENDBRANCH  11  13
ENDBRANCH   6  11
ENDBRANCH   2   6
ENDBRANCH   1   3
BRANCH   1  15
ATOM     15  O   UNK A   0      34.531  16.453  23.222  0.00  0.00    +0.000 OA
ATOM     16  H   UNK A   0      34.973  16.554  22.373  0.00  0.00    +0.000 HD
ENDBRANCH   1  15
BRANCH   1  17
ATOM     17  C   UNK A   0      34.166  15.255  21.250  0.00  0.00    +0.000 C 
BRANCH  17  18
ATOM     18  N   UNK A   0      35.623  15.210  21.146  0.00  0.00    +0.000 NA
ATOM     19  H   UNK A   0      35.943  14.247  21.098  0.00  0.00    +0.000 HD
ATOM     20  H   UNK A   0      35.873  15.668  20.271  0.00  0.00    +0.000 HD
ENDBRANCH  17  18
BRANCH  17  21
ATOM     21  C   UNK A   0      33.477  16.222  20.213  0.00  0.00    +0.000 C 
BRANCH  21  22
ATOM     22  C   UNK A   0      32.484  15.562  19.289  0.00  0.00    +0.000 A 
ATOM     23  C   UNK A   0      32.816  14.422  18.574  0.00  0.00    +0.000 A 
ATOM     24  C   UNK A   0      31.891  13.449  18.232  0.00  0.00    +0.000 A 
ATOM     25  C   UNK A   0      30.565  13.793  18.249  0.00  0.00    +0.000 A 
ATOM     26  C   UNK A   0      30.216  15.084  18.649  0.00  0.00    +0.000 A 
ATOM     27  C   UNK A   0      31.169  15.967  19.180  0.00  0.00    +0.000 A 
ENDBRANCH  21  22
ENDBRANCH  17  21
ENDBRANCH   1  17
TORSDOF 11
ENDMDL
MODEL 5
REMARK VINA RESULT:    -5.710     25.443     26.625
REMARK INTER + INTRA:          -9.596
REMARK INTER:                  -8.394
REMARK INTRA:                  -1.202
REMARK UNBOUND:                -0.715
REMARK  Name = 
REMARK  13 active torsions:
REMARK  status: ('A' for Active; 'I' for Inactive)
REMARK    1  A    between atoms: CD1_1  and  CG_2
REMARK    2  A    between atoms: CG_2  and  CD2_3
REMARK    3  A    between atoms: CG_2  and  CB_4
REMARK    4  A    between atoms: CB_4  and  CA_5
REMARK    5  A    between atoms: CA_5  and  C_6
REMARK    6  A    between atoms: CA_5  and  N_9
REMARK    7  A    between atoms: C_6  and  OXT_8
REMARK    8  A    between atoms: C_10  and  C_12
REMARK    9  A    between atoms: C_12  and  C_13
REMARK   10  A    between atoms: C_12  and  O_22
REMARK   11  A    between atoms: C_13  and  C_14
REMARK   12  A    between atoms: C_13  and  N_21
REMARK   13  A    between atoms: C_14  and  C_15
REMARK                            x       y       z     vdW  Elec       q    Type
REMARK                         _______ _______ _______ _____ _____    ______ ____
ROOT
ATOM      1  C   UNK A   0      27.583  10.190   4.684  0.00  0.00    +0.000 C 
ENDROOT
BRANCH   1   3
ATOM      2  N   LEU A   1      25.149   9.518   4.500  0.00  0.00    +0.000 N 
ATOM      3  C   UNK A   0      26.137  10.489   4.292  0.00  0.00    +0.000 C 
ATOM      4  O   UNK A   0      25.849  11.534   3.700  0.00  0.00    +0.000 OA
ATOM      5  H   LEU A   1      24.277   9.778   4.050  0.00  0.00    +0.000 HD
BRANCH   2   6
ATOM      6  CA  LEU A   1      24.959   8.489   5.541  0.00  0.00    +0.000 C 
BRANCH   6   7
ATOM      7  C   LEU A   1      25.369   7.026   5.242  0.00  0.00    +0.000 C 
ATOM      8  O   LEU A   1      24.998   6.036   5.801  0.00  0.00    +0.000 OA
BRANCH   7   9
ATOM      9  OXT LEU A   1      26.014   6.962   4.033  0.00  0.00    +0.000 OA
ATOM     10  HXT LEU A   1      25.669   6.210   3.515  0.00  0.00    +0.000 HD
ENDBRANCH   7   9
ENDBRANCH   6   7
BRANCH   6  11
ATOM     11  CB  LEU A   1      23.705   8.855   6.289  0.00  0.00    +0.000 C 
BRANCH  11  13
ATOM     12  CD1 LEU A   1      23.644   7.686   8.604  0.00  0.00    +0.000 C 
ATOM     13  CG  LEU A   1      23.985   8.953   7.792  0.00  0.00    +0.000 C 
ATOM     14  CD2 LEU A   1      25.442   9.305   7.957  0.00  0.00    +0.000 C 
ENDBRANCH  11  13
ENDBRANCH   6  11
ENDBRANCH   2   6
ENDBRANCH   1   3
BRANCH   1  15
ATOM     15  O   UNK A   0      27.924   9.220   3.717  0.00  0.00    +0.000 OA
ATOM     16  H   UNK A   0      28.608   8.839   4.277  0.00  0.00    +0.000 HD
ENDBRANCH   1  15
BRANCH   1  17
ATOM     17  C   UNK A   0      28.696  11.286   4.487  0.00  0.00    +0.000 C 
BRANCH  17  18
ATOM     18  N   UNK A   0      28.724  11.632   3.068  0.00  0.00    +0.000 NA
ATOM     19  H   UNK A   0      28.091  11.032   2.547  0.00  0.00    +0.000 HD
ATOM     20  H   UNK A   0      28.387  12.589   2.988  0.00  0.00    +0.000 HD
ENDBRANCH  17  18
BRANCH  17  21
ATOM     21  C   UNK A   0      30.122  11.112   5.135  0.00  0.00    +0.000 C 
BRANCH  21  22
ATOM     22  C   UNK A   0      30.545  12.231   6.054  0.00  0.00    +0.000 A 
ATOM     23  C   UNK A   0      30.480  12.093   7.431  0.00  0.00    +0.000 A 
ATOM     24  C   UNK A   0      31.355  12.728   8.296  0.00  0.00    +0.000 A 
ATOM     25  C   UNK A   0      32.044  13.815   7.825  0.00  0.00    +0.000 A 
ATOM     26  C   UNK A   0      31.860  14.195   6.494  0.00  0.00    +0.000 A 
ATOM     27  C   UNK A   0      31.122  13.401   5.602  0.00  0.00    +0.000 A 
ENDBRANCH  21  22
ENDBRANCH  17  21
ENDBRANCH   1  17
TORSDOF 11
ENDMDL
MODEL 6
REMARK VINA RESULT:    -5.413     25.509     27.133
REMARK INTER + INTRA:          -9.134
REMARK INTER:                  -8.031
REMARK INTRA:                  -1.103
REMARK UNBOUND:                -0.715
REMARK  Name = 
REMARK  13 active torsions:
REMARK  status: ('A' for Active; 'I' for Inactive)
REMARK    1  A    between atoms: CD1_1  and  CG_2
REMARK    2  A    between atoms: CG_2  and  CD2_3
REMARK    3  A    between atoms: CG_2  and  CB_4
REMARK    4  A    between atoms: CB_4  and  CA_5
REMARK    5  A    between atoms: CA_5  and  C_6
REMARK    6  A    between atoms: CA_5  and  N_9
REMARK    7  A    between atoms: C_6  and  OXT_8
REMARK    8  A    between atoms: C_10  and  C_12
REMARK    9  A    between atoms: C_12  and  C_13
REMARK   10  A    between atoms: C_12  and  O_22
REMARK   11  A    between atoms: C_13  and  C_14
REMARK   12  A    between atoms: C_13  and  N_21
REMARK   13  A    between atoms: C_14  and  C_15
REMARK                            x       y       z     vdW  Elec       q    Type
REMARK                         _______ _______ _______ _____ _____    ______ ____
ROOT
ATOM      1  C   UNK A   0      26.102  10.199   5.467  0.00  0.00    +0.000 C 
ENDROOT
BRANCH   1   3
ATOM      2  N   LEU A   1      27.386  11.703   3.886  0.00  0.00    +0.000 N 
ATOM      3  C   UNK A   0      26.153  11.183   4.299  0.00  0.00    +0.000 C 
ATOM      4  O   UNK A   0      25.111  11.604   3.785  0.00  0.00    +0.000 OA
ATOM      5  H   LEU A   1      27.263  12.460   3.221  0.00  0.00    +0.000 HD
BRANCH   2   6
ATOM      6  CA  LEU A   1      28.749  11.138   3.847  0.00  0.00    +0.000 C 
BRANCH   6   7
ATOM      7  C   LEU A   1      29.829  11.704   4.802  0.00  0.00    +0.000 C 
ATOM      8  O   LEU A   1      30.796  11.140   5.224  0.00  0.00    +0.000 OA
BRANCH   7   9
ATOM      9  OXT LEU A   1      29.704  13.067   4.890  0.00  0.00    +0.000 OA
ATOM     10  HXT LEU A   1      30.088  13.379   5.732  0.00  0.00    +0.000 HD
ENDBRANCH   7   9
ENDBRANCH   6   7
BRANCH   6  11
ATOM     11  CB  LEU A   1      29.027  10.776   2.413  0.00  0.00    +0.000 C 
BRANCH  11  13
ATOM     12  CD1 LEU A   1      28.819   8.420   3.479  0.00  0.00    +0.000 C 
ATOM     13  CG  LEU A   1      28.835   9.272   2.192  0.00  0.00    +0.000 C 
ATOM     14  CD2 LEU A   1      27.548   9.089   1.427  0.00  0.00    +0.000 C 
ENDBRANCH  11  13
ENDBRANCH   6  11
ENDBRANCH   2   6
ENDBRANCH   1   3
BRANCH   1  15
ATOM     15  O   UNK A   0      26.415  11.052   6.546  0.00  0.00    +0.000 OA
ATOM     16  H   UNK A   0      26.534  10.314   7.152  0.00  0.00    +0.000 HD
ENDBRANCH   1  15
BRANCH   1  17
ATOM     17  C   UNK A   0      24.728   9.568   5.906  0.00  0.00    +0.000 C 
BRANCH  17  18
ATOM     18  N   UNK A   0      24.032  10.561   6.723  0.00  0.00    +0.000 NA
ATOM     19  H   UNK A   0      23.202  10.153   7.141  0.00  0.00    +0.000 HD
ATOM     20  H   UNK A   0      24.666  10.824   7.475  0.00  0.00    +0.000 HD
ENDBRANCH  17  18
BRANCH  17  21
ATOM     21  C   UNK A   0      24.661   8.102   6.481  0.00  0.00    +0.000 C 
BRANCH  21  22
ATOM     22  C   UNK A   0      24.606   8.010   7.986  0.00  0.00    +0.000 A 
ATOM     23  C   UNK A   0      23.453   7.607   8.639  0.00  0.00    +0.000 A 
ATOM     24  C   UNK A   0      23.467   6.925   9.844  0.00  0.00    +0.000 A 
ATOM     25  C   UNK A   0      24.605   6.993  10.604  0.00  0.00    +0.000 A 
ATOM     26  C   UNK A   0      25.698   7.705  10.106  0.00  0.00    +0.000 A 
ATOM     27  C   UNK A   0      25.708   8.205   8.794  0.00  0.00    +0.000 A 
ENDBRANCH  21  22
ENDBRANCH  17  21
ENDBRANCH   1  17
TORSDOF 11
ENDMDL
MODEL 7
REMARK VINA RESULT:    -4.855     26.995     29.004
REMARK INTER + INTRA:          -8.267
REMARK INTER:                  -6.953
REMARK INTRA:                  -1.314
REMARK UNBOUND:                -0.715
REMARK  Name = 
REMARK  13 active torsions:
REMARK  status: ('A' for Active; 'I' for Inactive)
REMARK    1  A    between atoms: CD1_1  and  CG_2
REMARK    2  A    between atoms: CG_2  and  CD2_3
REMARK    3  A    between atoms: CG_2  and  CB_4
REMARK    4  A    between atoms: CB_4  and  CA_5
REMARK    5  A    between atoms: CA_5  and  C_6
REMARK    6  A    between atoms: CA_5  and  N_9
REMARK    7  A    between atoms: C_6  and  OXT_8
REMARK    8  A    between atoms: C_10  and  C_12
REMARK    9  A    between atoms: C_12  and  C_13
REMARK   10  A    between atoms: C_12  and  O_22
REMARK   11  A    between atoms: C_13  and  C_14
REMARK   12  A    between atoms: C_13  and  N_21
REMARK   13  A    between atoms: C_14  and  C_15
REMARK                            x       y       z     vdW  Elec       q    Type
REMARK                         _______ _______ _______ _____ _____    ______ ____
ROOT
ATOM      1  C   UNK A   0      31.776  11.353   2.034  0.00  0.00    +0.000 C 
ENDROOT
BRANCH   1   3
ATOM      2  N   LEU A   1      31.700  12.721   4.163  0.00  0.00    +0.000 N 
ATOM      3  C   UNK A   0      32.286  12.495   2.912  0.00  0.00    +0.000 C 
ATOM      4  O   UNK A   0      33.136  13.284   2.486  0.00  0.00    +0.000 OA
ATOM      5  H   LEU A   1      32.015  13.598   4.565  0.00  0.00    +0.000 HD
BRANCH   2   6
ATOM      6  CA  LEU A   1      31.120  11.816   5.176  0.00  0.00    +0.000 C 
BRANCH   6   7
ATOM      7  C   LEU A   1      29.593  11.555   5.169  0.00  0.00    +0.000 C 
ATOM      8  O   LEU A   1      28.947  10.989   6.002  0.00  0.00    +0.000 OA
BRANCH   7   9
ATOM      9  OXT LEU A   1      28.994  12.320   4.202  0.00  0.00    +0.000 OA
ATOM     10  HXT LEU A   1      29.558  13.090   3.995  0.00  0.00    +0.000 HD
ENDBRANCH   7   9
ENDBRANCH   6   7
BRANCH   6  11
ATOM     11  CB  LEU A   1      31.916  12.011   6.438  0.00  0.00    +0.000 C 
BRANCH  11  13
ATOM     12  CD1 LEU A   1      30.943  13.116   8.575  0.00  0.00    +0.000 C 
ATOM     13  CG  LEU A   1      31.493  13.303   7.145  0.00  0.00    +0.000 C 
ATOM     14  CD2 LEU A   1      32.689  14.221   7.160  0.00  0.00    +0.000 C 
ENDBRANCH  11  13
ENDBRANCH   6  11
ENDBRANCH   2   6
ENDBRANCH   1   3
BRANCH   1  15
ATOM     15  O   UNK A   0      30.498  11.839   1.685  0.00  0.00    +0.000 OA
ATOM     16  H   UNK A   0      30.297  12.088   2.593  0.00  0.00    +0.000 HD
ENDBRANCH   1  15
BRANCH   1  17
ATOM     17  C   UNK A   0      32.440  11.078   0.634  0.00  0.00    +0.000 C 
BRANCH  17  18
ATOM     18  N   UNK A   0      31.375  10.686  -0.287  0.00  0.00    +0.000 NA
ATOM     19  H   UNK A   0      30.883   9.873   0.070  0.00  0.00    +0.000 HD
ATOM     20  H   UNK A   0      30.716  11.462  -0.326  0.00  0.00    +0.000 HD
ENDBRANCH  17  18
BRANCH  17  21
ATOM     21  C   UNK A   0      33.744  10.200   0.519  0.00  0.00    +0.000 C 
BRANCH  21  22
ATOM     22  C   UNK A   0      35.012  10.882   0.972  0.00  0.00    +0.000 A 
ATOM     23  C   UNK A   0      35.596  11.887   0.218  0.00  0.00    +0.000 A 
ATOM     24  C   UNK A   0      36.316  12.929   0.777  0.00  0.00    +0.000 A 
ATOM     25  C   UNK A   0      36.799  12.762   2.048  0.00  0.00    +0.000 A 
ATOM     26  C   UNK A   0      36.505  11.576   2.723  0.00  0.00    +0.000 A 
ATOM     27  C   UNK A   0      35.604  10.639   2.195  0.00  0.00    +0.000 A 
ENDBRANCH  21  22
ENDBRANCH  17  21
ENDBRANCH   1  17
TORSDOF 11
ENDMDL
MODEL 8
REMARK VINA RESULT:    -4.810     25.659     26.918
REMARK INTER + INTRA:          -8.197
REMARK INTER:                  -7.516
REMARK INTRA:                  -0.681
REMARK UNBOUND:                -0.715
REMARK  Name = 
REMARK  13 active torsions:
REMARK  status: ('A' for Active; 'I' for Inactive)
REMARK    1  A    between atoms: CD1_1  and  CG_2
REMARK    2  A    between atoms: CG_2  and  CD2_3
REMARK    3  A    between atoms: CG_2  and  CB_4
REMARK    4  A    between atoms: CB_4  and  CA_5
REMARK    5  A    between atoms: CA_5  and  C_6
REMARK    6  A    between atoms: CA_5  and  N_9
REMARK    7  A    between atoms: C_6  and  OXT_8
REMARK    8  A    between atoms: C_10  and  C_12
REMARK    9  A    between atoms: C_12  and  C_13
REMARK   10  A    between atoms: C_12  and  O_22
REMARK   11  A    between atoms: C_13  and  C_14
REMARK   12  A    between atoms: C_13  and  N_21
REMARK   13  A    between atoms: C_14  and  C_15
REMARK                            x       y       z     vdW  Elec       q    Type
REMARK                         _______ _______ _______ _____ _____    ______ ____
ROOT
ATOM      1  C   UNK A   0      29.456   9.170   5.642  0.00  0.00    +0.000 C 
ENDROOT
BRANCH   1   3
ATOM      2  N   LEU A   1      27.173   8.297   4.980  0.00  0.00    +0.000 N 
ATOM      3  C   UNK A   0      28.565   8.162   4.917  0.00  0.00    +0.000 C 
ATOM      4  O   UNK A   0      29.056   7.172   4.364  0.00  0.00    +0.000 OA
ATOM      5  H   LEU A   1      26.705   7.481   4.601  0.00  0.00    +0.000 HD
BRANCH   2   6
ATOM      6  CA  LEU A   1      26.283   9.474   5.046  0.00  0.00    +0.000 C 
BRANCH   6   7
ATOM      7  C   LEU A   1      26.221  10.443   3.840  0.00  0.00    +0.000 C 
ATOM      8  O   LEU A   1      25.650  11.492   3.777  0.00  0.00    +0.000 OA
BRANCH   7   9
ATOM      9  OXT LEU A   1      27.162  10.088   2.908  0.00  0.00    +0.000 OA
ATOM     10  HXT LEU A   1      26.751  10.044   2.024  0.00  0.00    +0.000 HD
ENDBRANCH   7   9
ENDBRANCH   6   7
BRANCH   6  11
ATOM     11  CB  LEU A   1      26.288   9.941   6.477  0.00  0.00    +0.000 C 
BRANCH  11  13
ATOM     12  CD1 LEU A   1      23.891   8.979   6.232  0.00  0.00    +0.000 C 
ATOM     13  CG  LEU A   1      24.912   9.723   7.117  0.00  0.00    +0.000 C 
ATOM     14  CD2 LEU A   1      25.129   8.976   8.408  0.00  0.00    +0.000 C 
ENDBRANCH  11  13
ENDBRANCH   6  11
ENDBRANCH   2   6
ENDBRANCH   1   3
BRANCH   1  15
ATOM     15  O   UNK A   0      30.531   8.342   6.029  0.00  0.00    +0.000 OA
ATOM     16  H   UNK A   0      29.942   7.630   6.298  0.00  0.00    +0.000 HD
ENDBRANCH   1  15
BRANCH   1  17
ATOM     17  C   UNK A   0      30.170  10.315   4.831  0.00  0.00    +0.000 C 
BRANCH  17  18
ATOM     18  N   UNK A   0      31.611  10.116   4.970  0.00  0.00    +0.000 NA
ATOM     19  H   UNK A   0      31.910  10.347   5.912  0.00  0.00    +0.000 HD
ATOM     20  H   UNK A   0      31.790   9.125   4.817  0.00  0.00    +0.000 HD
ENDBRANCH  17  18
BRANCH  17  21
ATOM     21  C   UNK A   0      29.711  11.815   4.982  0.00  0.00    +0.000 C 
BRANCH  21  22
ATOM     22  C   UNK A   0      30.472  12.614   6.012  0.00  0.00    +0.000 A 
ATOM     23  C   UNK A   0      30.510  12.222   7.341  0.00  0.00    +0.000 A 
ATOM     24  C   UNK A   0      31.589  12.471   8.171  0.00  0.00    +0.000 A 
ATOM     25  C   UNK A   0      32.465  13.458   7.803  0.00  0.00    +0.000 A 
ATOM     26  C   UNK A   0      32.248  14.125   6.596  0.00  0.00    +0.000 A 
ATOM     27  C   UNK A   0      31.262  13.700   5.692  0.00  0.00    +0.000 A 
ENDBRANCH  21  22
ENDBRANCH  17  21
ENDBRANCH   1  17
TORSDOF 11
ENDMDL
MODEL 9
REMARK VINA RESULT:    -4.774     28.228     30.411
REMARK INTER + INTRA:          -8.141
REMARK INTER:                  -7.320
REMARK INTRA:                  -0.820
REMARK UNBOUND:                -0.715
REMARK  Name = 
REMARK  13 active torsions:
REMARK  status: ('A' for Active; 'I' for Inactive)
REMARK    1  A    between atoms: CD1_1  and  CG_2
REMARK    2  A    between atoms: CG_2  and  CD2_3
REMARK    3  A    between atoms: CG_2  and  CB_4
REMARK    4  A    between atoms: CB_4  and  CA_5
REMARK    5  A    between atoms: CA_5  and  C_6
REMARK    6  A    between atoms: CA_5  and  N_9
REMARK    7  A    between atoms: C_6  and  OXT_8
REMARK    8  A    between atoms: C_10  and  C_12
REMARK    9  A    between atoms: C_12  and  C_13
REMARK   10  A    between atoms: C_12  and  O_22
REMARK   11  A    between atoms: C_13  and  C_14
REMARK   12  A    between atoms: C_13  and  N_21
REMARK   13  A    between atoms: C_14  and  C_15
REMARK                            x       y       z     vdW  Elec       q    Type
REMARK                         _______ _______ _______ _____ _____    ______ ____
ROOT
ATOM      1  C   UNK A   0      34.231  11.772   1.260  0.00  0.00    +0.000 C 
ENDROOT
BRANCH   1   3
ATOM      2  N   LEU A   1      32.869  13.174   2.870  0.00  0.00    +0.000 N 
ATOM      3  C   UNK A   0      33.072  12.723   1.560  0.00  0.00    +0.000 C 
ATOM      4  O   UNK A   0      32.254  13.014   0.682  0.00  0.00    +0.000 OA
ATOM      5  H   LEU A   1      31.983  13.659   2.960  0.00  0.00    +0.000 HD
BRANCH   2   6
ATOM      6  CA  LEU A   1      33.795  13.489   3.976  0.00  0.00    +0.000 C 
BRANCH   6   7
ATOM      7  C   LEU A   1      35.311  13.613   3.681  0.00  0.00    +0.000 C 
ATOM      8  O   LEU A   1      36.170  12.820   3.935  0.00  0.00    +0.000 OA
BRANCH   7   9
ATOM      9  OXT LEU A   1      35.532  14.647   2.807  0.00  0.00    +0.000 OA
ATOM     10  HXT LEU A   1      36.244  14.405   2.185  0.00  0.00    +0.000 HD
ENDBRANCH   7   9
ENDBRANCH   6   7
BRANCH   6  11
ATOM     11  CB  LEU A   1      33.250  12.812   5.204  0.00  0.00    +0.000 C 
BRANCH  11  13
ATOM     12  CD1 LEU A   1      30.811  12.844   6.090  0.00  0.00    +0.000 C 
ATOM     13  CG  LEU A   1      32.106  13.635   5.807  0.00  0.00    +0.000 C 
ATOM     14  CD2 LEU A   1      32.622  14.265   7.075  0.00  0.00    +0.000 C 
ENDBRANCH  11  13
ENDBRANCH   6  11
ENDBRANCH   2   6
ENDBRANCH   1   3
BRANCH   1  15
ATOM     15  O   UNK A   0      33.556  10.743   0.569  0.00  0.00    +0.000 OA
ATOM     16  H   UNK A   0      33.332  10.284   1.385  0.00  0.00    +0.000 HD
ENDBRANCH   1  15
BRANCH   1  17
ATOM     17  C   UNK A   0      35.356  12.197   0.244  0.00  0.00    +0.000 C 
BRANCH  17  18
ATOM     18  N   UNK A   0      36.626  12.180   0.965  0.00  0.00    +0.000 NA
ATOM     19  H   UNK A   0      37.021  11.244   0.961  0.00  0.00    +0.000 HD
ATOM     20  H   UNK A   0      37.264  12.792   0.459  0.00  0.00    +0.000 HD
ENDBRANCH  17  18
BRANCH  17  21
ATOM     21  C   UNK A   0      35.164  13.452  -0.691  0.00  0.00    +0.000 C 
BRANCH  21  22
ATOM     22  C   UNK A   0      34.572  13.151  -2.046  0.00  0.00    +0.000 A 
ATOM     23  C   UNK A   0      35.190  12.273  -2.922  0.00  0.00    +0.000 A 
ATOM     24  C   UNK A   0      34.491  11.494  -3.828  0.00  0.00    +0.000 A 
ATOM     25  C   UNK A   0      33.214  11.874  -4.147  0.00  0.00    +0.000 A 
ATOM     26  C   UNK A   0      32.674  12.994  -3.513  0.00  0.00    +0.000 A 
ATOM     27  C   UNK A   0      33.343  13.628  -2.455  0.00  0.00    +0.000 A 
ENDBRANCH  21  22
ENDBRANCH  17  21
ENDBRANCH   1  17
TORSDOF 11
ENDMDL
