MODEL 1
REMARK VINA RESULT:    -5.968      0.000      0.000
REMARK INTER + INTRA:          -5.475
REMARK INTER:                  -7.364
REMARK INTRA:                   1.888
REMARK UNBOUND:                 1.888
REMARK  Name = 
REMARK  11 active torsions:
REMARK  status: ('A' for Active; 'I' for Inactive)
REMARK    1  A    between atoms: C_1  and  C_2
REMARK    2  A    between atoms: C_2  and  C_27
REMARK    3  A    between atoms: C_3  and  C_4
REMARK    4  A    between atoms: C_4  and  C_5
REMARK    5  A    between atoms: C_6  and  C_8
REMARK    6  A    between atoms: C_6  and  C_9
REMARK    7  A    between atoms: C_10  and  O_25
REMARK    8  A    between atoms: C_11  and  O_17
REMARK    9  A    between atoms: O_17  and  C_18
REMARK   10  A    between atoms: C_21  and  C_23
REMARK   11  A    between atoms: O_25  and  C_26
REMARK                            x       y       z     vdW  Elec       q    Type
REMARK                         _______ _______ _______ _____ _____    ______ ____
ROOT
ATOM      1  C   UNL     1      19.051  44.612  22.755  0.00  0.00    +0.000 C 
ATOM      2  C   UNL     1      17.839  45.460  22.839  0.00  0.00    +0.000 C 
ATOM      3  C   UNL     1      18.459  45.040  24.430  0.00  0.00    +0.000 C 
ATOM      4  C   UNL     1      18.177  43.407  25.211  0.00  0.00    +0.000 C 
ATOM      5  C   UNL     1      18.448  42.198  24.354  0.00  0.00    +0.000 C 
ATOM      6  C   UNL     1      19.551  42.903  23.772  0.00  0.00    +0.000 C 
ATOM      7  C   UNL     1      20.971  42.371  24.552  0.00  0.00    +0.000 C 
ATOM      8  O   UNL     1      20.695  41.943  23.256  0.00  0.00    +0.000 OA
ENDROOT
BRANCH   1  10
ATOM      9  C   UNL     1      20.293  45.589  20.591  0.00  0.00    +0.000 C 
ATOM     10  C   UNL     1      19.959  45.746  22.059  0.00  0.00    +0.000 C 
ATOM     11  O   UNL     1      21.274  45.256  21.520  0.00  0.00    +0.000 OA
ATOM     12  C   UNL     1      20.009  47.167  22.943  0.00  0.00    +0.000 C 
BRANCH   9  13
ATOM     13  C   UNL     1      20.531  46.828  19.871  0.00  0.00    +0.000 C 
BRANCH  13  16
ATOM     14  C   UNL     1      24.053  47.373  18.361  0.00  0.00    +0.000 C 
ATOM     15  C   UNL     1      22.897  47.505  19.303  0.00  0.00    +0.000 C 
ATOM     16  C   UNL     1      21.809  46.779  19.103  0.00  0.00    +0.000 C 
ATOM     17  C   UNL     1      22.962  48.423  20.458  0.00  0.00    +0.000 C 
ENDBRANCH  13  16
ENDBRANCH   9  13
ENDBRANCH   1  10
BRANCH   2  18
ATOM     18  O   UNL     1      17.712  46.758  22.263  0.00  0.00    +0.000 OA
ATOM     19  C   UNL     1      16.604  46.865  21.411  0.00  0.00    +0.000 C 
ENDBRANCH   2  18
BRANCH   3  20
ATOM     20  O   UNL     1      20.218  44.784  24.256  0.00  0.00    +0.000 OA
BRANCH  20  21
ATOM     21  C   UNL     1      21.389  45.491  25.392  0.00  0.00    +0.000 C 
ATOM     22  O   UNL     1      22.577  45.017  25.259  0.00  0.00    +0.000 OA
ATOM     23  N   UNL     1      20.729  46.777  26.485  0.00  0.00    +0.000 N 
ATOM     24  C   UNL     1      19.173  47.690  26.592  0.00  0.00    +0.000 C 
ATOM     25  O   UNL     1      19.382  48.904  26.759  0.00  0.00    +0.000 OA
ATOM     26  H   UNL     1      21.478  47.484  26.423  0.00  0.00    +0.000 HD
BRANCH  24  27
ATOM     27  C   UNL     1      17.290  47.240  26.057  0.00  0.00    +0.000 C 
ATOM     28 CL   UNL     1      15.635  47.850  24.831  0.00  0.00    +0.000 Cl
ENDBRANCH  24  27
ENDBRANCH  20  21
ENDBRANCH   3  20
TORSDOF 7
ENDMDL
MODEL 2
REMARK VINA RESULT:    -5.847      2.313      3.100
REMARK INTER + INTRA:          -5.326
REMARK INTER:                  -7.121
REMARK INTRA:                   1.795
REMARK UNBOUND:                 1.888
REMARK  Name = 
REMARK  11 active torsions:
REMARK  status: ('A' for Active; 'I' for Inactive)
REMARK    1  A    between atoms: C_1  and  C_2
REMARK    2  A    between atoms: C_2  and  C_27
REMARK    3  A    between atoms: C_3  and  C_4
REMARK    4  A    between atoms: C_4  and  C_5
REMARK    5  A    between atoms: C_6  and  C_8
REMARK    6  A    between atoms: C_6  and  C_9
REMARK    7  A    between atoms: C_10  and  O_25
REMARK    8  A    between atoms: C_11  and  O_17
REMARK    9  A    between atoms: O_17  and  C_18
REMARK   10  A    between atoms: C_21  and  C_23
REMARK   11  A    between atoms: O_25  and  C_26
REMARK                            x       y       z     vdW  Elec       q    Type
REMARK                         _______ _______ _______ _____ _____    ______ ____
ROOT
ATOM      1  C   UNL     1      19.024  44.609  23.020  0.00  0.00    +0.000 C 
ATOM      2  C   UNL     1      17.722  45.203  22.638  0.00  0.00    +0.000 C 
ATOM      3  C   UNL     1      17.713  44.609  24.293  0.00  0.00    +0.000 C 
ATOM      4  C   UNL     1      17.531  42.836  24.714  0.00  0.00    +0.000 C 
ATOM      5  C   UNL     1      18.409  41.873  23.959  0.00  0.00    +0.000 C 
ATOM      6  C   UNL     1      19.452  42.854  23.992  0.00  0.00    +0.000 C 
ATOM      7  C   UNL     1      20.506  42.442  25.266  0.00  0.00    +0.000 C 
ATOM      8  O   UNL     1      20.898  42.220  23.948  0.00  0.00    +0.000 OA
ENDROOT
BRANCH   1  10
ATOM      9  C   UNL     1      20.831  46.144  21.770  0.00  0.00    +0.000 C 
ATOM     10  C   UNL     1      19.841  45.993  22.905  0.00  0.00    +0.000 C 
ATOM     11  O   UNL     1      21.333  45.857  23.036  0.00  0.00    +0.000 OA
ATOM     12  C   UNL     1      19.136  47.235  23.780  0.00  0.00    +0.000 C 
BRANCH   9  13
ATOM     13  C   UNL     1      21.059  47.506  21.319  0.00  0.00    +0.000 C 
BRANCH  13  16
ATOM     14  C   UNL     1      24.499  47.661  19.555  0.00  0.00    +0.000 C 
ATOM     15  C   UNL     1      23.028  47.461  19.738  0.00  0.00    +0.000 C 
ATOM     16  C   UNL     1      22.478  47.720  20.914  0.00  0.00    +0.000 C 
ATOM     17  C   UNL     1      22.181  46.995  18.622  0.00  0.00    +0.000 C 
ENDBRANCH  13  16
ENDBRANCH   9  13
ENDBRANCH   1  10
BRANCH   2  18
ATOM     18  O   UNL     1      17.540  46.544  22.187  0.00  0.00    +0.000 OA
ATOM     19  C   UNL     1      16.402  46.693  21.381  0.00  0.00    +0.000 C 
ENDBRANCH   2  18
BRANCH   3  20
ATOM     20  O   UNL     1      19.393  44.699  24.891  0.00  0.00    +0.000 OA
BRANCH  20  21
ATOM     21  C   UNL     1      19.796  45.442  26.456  0.00  0.00    +0.000 C 
ATOM     22  O   UNL     1      18.762  45.824  27.119  0.00  0.00    +0.000 OA
ATOM     23  N   UNL     1      21.560  45.479  26.865  0.00  0.00    +0.000 N 
ATOM     24  C   UNL     1      23.055  44.761  26.147  0.00  0.00    +0.000 C 
ATOM     25  O   UNL     1      23.772  44.255  27.028  0.00  0.00    +0.000 OA
ATOM     26  H   UNL     1      21.535  45.175  27.851  0.00  0.00    +0.000 HD
BRANCH  24  27
ATOM     27  C   UNL     1      23.545  44.226  24.274  0.00  0.00    +0.000 C 
ATOM     28 CL   UNL     1      24.407  44.921  22.433  0.00  0.00    +0.000 Cl
ENDBRANCH  24  27
ENDBRANCH  20  21
ENDBRANCH   3  20
TORSDOF 7
ENDMDL
MODEL 3
REMARK VINA RESULT:    -5.578      2.114      2.574
REMARK INTER + INTRA:          -4.993
REMARK INTER:                  -7.596
REMARK INTRA:                   2.603
REMARK UNBOUND:                 1.888
REMARK  Name = 
REMARK  11 active torsions:
REMARK  status: ('A' for Active; 'I' for Inactive)
REMARK    1  A    between atoms: C_1  and  C_2
REMARK    2  A    between atoms: C_2  and  C_27
REMARK    3  A    between atoms: C_3  and  C_4
REMARK    4  A    between atoms: C_4  and  C_5
REMARK    5  A    between atoms: C_6  and  C_8
REMARK    6  A    between atoms: C_6  and  C_9
REMARK    7  A    between atoms: C_10  and  O_25
REMARK    8  A    between atoms: C_11  and  O_17
REMARK    9  A    between atoms: O_17  and  C_18
REMARK   10  A    between atoms: C_21  and  C_23
REMARK   11  A    between atoms: O_25  and  C_26
REMARK                            x       y       z     vdW  Elec       q    Type
REMARK                         _______ _______ _______ _____ _____    ______ ____
ROOT
ATOM      1  C   UNL     1      19.214  44.913  23.094  0.00  0.00    +0.000 C 
ATOM      2  C   UNL     1      18.257  45.953  23.538  0.00  0.00    +0.000 C 
ATOM      3  C   UNL     1      19.160  45.273  24.884  0.00  0.00    +0.000 C 
ATOM      4  C   UNL     1      18.763  43.648  25.632  0.00  0.00    +0.000 C 
ATOM      5  C   UNL     1      18.562  42.502  24.677  0.00  0.00    +0.000 C 
ATOM      6  C   UNL     1      19.601  43.049  23.857  0.00  0.00    +0.000 C 
ATOM      7  C   UNL     1      21.035  42.196  24.205  0.00  0.00    +0.000 C 
ATOM      8  O   UNL     1      20.362  41.954  23.010  0.00  0.00    +0.000 OA
ENDROOT
BRANCH   1  10
ATOM      9  C   UNL     1      20.206  45.722  20.739  0.00  0.00    +0.000 C 
ATOM     10  C   UNL     1      20.125  45.927  22.236  0.00  0.00    +0.000 C 
ATOM     11  O   UNL     1      21.276  45.283  21.513  0.00  0.00    +0.000 OA
ATOM     12  C   UNL     1      20.476  47.339  23.066  0.00  0.00    +0.000 C 
BRANCH   9  13
ATOM     13  C   UNL     1      20.469  46.919  19.960  0.00  0.00    +0.000 C 
BRANCH  13  16
ATOM     14  C   UNL     1      23.974  47.271  18.357  0.00  0.00    +0.000 C 
ATOM     15  C   UNL     1      22.845  47.482  19.317  0.00  0.00    +0.000 C 
ATOM     16  C   UNL     1      21.726  46.792  19.167  0.00  0.00    +0.000 C 
ATOM     17  C   UNL     1      22.971  48.438  20.435  0.00  0.00    +0.000 C 
ENDBRANCH  13  16
ENDBRANCH   9  13
ENDBRANCH   1  10
BRANCH   2  18
ATOM     18  O   UNL     1      18.252  47.304  23.079  0.00  0.00    +0.000 OA
ATOM     19  C   UNL     1      16.982  47.893  23.149  0.00  0.00    +0.000 C 
ENDBRANCH   2  18
BRANCH   3  20
ATOM     20  O   UNL     1      20.730  44.722  24.237  0.00  0.00    +0.000 OA
BRANCH  20  21
ATOM     21  C   UNL     1      22.276  45.267  24.927  0.00  0.00    +0.000 C 
ATOM     22  O   UNL     1      22.909  46.091  24.169  0.00  0.00    +0.000 OA
ATOM     23  N   UNL     1      22.659  44.621  26.576  0.00  0.00    +0.000 N 
ATOM     24  C   UNL     1      21.752  43.678  27.823  0.00  0.00    +0.000 C 
ATOM     25  O   UNL     1      21.910  44.172  28.953  0.00  0.00    +0.000 OA
ATOM     26  H   UNL     1      22.994  45.478  27.044  0.00  0.00    +0.000 HD
BRANCH  24  27
ATOM     27  C   UNL     1      20.248  42.353  27.701  0.00  0.00    +0.000 C 
ATOM     28 CL   UNL     1      18.593  41.495  28.768  0.00  0.00    +0.000 Cl
ENDBRANCH  24  27
ENDBRANCH  20  21
ENDBRANCH   3  20
TORSDOF 7
ENDMDL
MODEL 4
REMARK VINA RESULT:    -5.514     12.529     15.827
REMARK INTER + INTRA:          -4.915
REMARK INTER:                  -7.415
REMARK INTRA:                   2.501
REMARK UNBOUND:                 1.888
REMARK  Name = 
REMARK  11 active torsions:
REMARK  status: ('A' for Active; 'I' for Inactive)
REMARK    1  A    between atoms: C_1  and  C_2
REMARK    2  A    between atoms: C_2  and  C_27
REMARK    3  A    between atoms: C_3  and  C_4
REMARK    4  A    between atoms: C_4  and  C_5
REMARK    5  A    between atoms: C_6  and  C_8
REMARK    6  A    between atoms: C_6  and  C_9
REMARK    7  A    between atoms: C_10  and  O_25
REMARK    8  A    between atoms: C_11  and  O_17
REMARK    9  A    between atoms: O_17  and  C_18
REMARK   10  A    between atoms: C_21  and  C_23
REMARK   11  A    between atoms: O_25  and  C_26
REMARK                            x       y       z     vdW  Elec       q    Type
REMARK                         _______ _______ _______ _____ _____    ______ ____
ROOT
ATOM      1  C   UNL     1      15.800  31.768  22.077  0.00  0.00    +0.000 C 
ATOM      2  C   UNL     1      16.590  32.857  21.457  0.00  0.00    +0.000 C 
ATOM      3  C   UNL     1      15.670  31.950  20.264  0.00  0.00    +0.000 C 
ATOM      4  C   UNL     1      16.197  30.313  19.634  0.00  0.00    +0.000 C 
ATOM      5  C   UNL     1      16.605  29.296  20.666  0.00  0.00    +0.000 C 
ATOM      6  C   UNL     1      15.576  29.806  21.523  0.00  0.00    +0.000 C 
ATOM      7  C   UNL     1      14.230  28.770  21.383  0.00  0.00    +0.000 C 
ATOM      8  O   UNL     1      15.018  28.724  22.530  0.00  0.00    +0.000 OA
ENDROOT
BRANCH   1  10
ATOM      9  C   UNL     1      15.050  32.843  24.415  0.00  0.00    +0.000 C 
ATOM     10  C   UNL     1      14.846  32.756  22.917  0.00  0.00    +0.000 C 
ATOM     11  O   UNL     1      13.986  32.078  23.947  0.00  0.00    +0.000 OA
ATOM     12  C   UNL     1      14.080  33.891  21.952  0.00  0.00    +0.000 C 
BRANCH   9  13
ATOM     13  C   UNL     1      14.671  34.106  25.023  0.00  0.00    +0.000 C 
BRANCH  13  16
ATOM     14  C   UNL     1      15.821  34.683  28.672  0.00  0.00    +0.000 C 
ATOM     15  C   UNL     1      14.931  34.320  27.526  0.00  0.00    +0.000 C 
ATOM     16  C   UNL     1      15.412  34.348  26.293  0.00  0.00    +0.000 C 
ATOM     17  C   UNL     1      13.528  33.919  27.753  0.00  0.00    +0.000 C 
ENDBRANCH  13  16
ENDBRANCH   9  13
ENDBRANCH   1  10
BRANCH   2  18
ATOM     18  O   UNL     1      16.472  34.239  21.790  0.00  0.00    +0.000 OA
ATOM     19  C   UNL     1      17.701  34.818  22.136  0.00  0.00    +0.000 C 
ENDBRANCH   2  18
BRANCH   3  20
ATOM     20  O   UNL     1      14.232  31.298  21.096  0.00  0.00    +0.000 OA
BRANCH  20  21
ATOM     21  C   UNL     1      12.601  31.426  20.397  0.00  0.00    +0.000 C 
ATOM     22  O   UNL     1      11.664  31.199  21.248  0.00  0.00    +0.000 OA
ATOM     23  N   UNL     1      12.542  31.900  18.649  0.00  0.00    +0.000 N 
ATOM     24  C   UNL     1      13.754  32.480  17.440  0.00  0.00    +0.000 C 
ATOM     25  O   UNL     1      13.311  33.450  16.799  0.00  0.00    +0.000 OA
ATOM     26  H   UNL     1      11.788  32.605  18.667  0.00  0.00    +0.000 HD
BRANCH  24  27
ATOM     27  C   UNL     1      15.733  32.197  17.251  0.00  0.00    +0.000 C 
ATOM     28 CL   UNL     1      17.248  31.203  16.098  0.00  0.00    +0.000 Cl
ENDBRANCH  24  27
ENDBRANCH  20  21
ENDBRANCH   3  20
TORSDOF 7
ENDMDL
MODEL 5
REMARK VINA RESULT:    -5.434      2.450      3.618
REMARK INTER + INTRA:          -4.816
REMARK INTER:                  -7.216
REMARK INTRA:                   2.401
REMARK UNBOUND:                 1.888
REMARK  Name = 
REMARK  11 active torsions:
REMARK  status: ('A' for Active; 'I' for Inactive)
REMARK    1  A    between atoms: C_1  and  C_2
REMARK    2  A    between atoms: C_2  and  C_27
REMARK    3  A    between atoms: C_3  and  C_4
REMARK    4  A    between atoms: C_4  and  C_5
REMARK    5  A    between atoms: C_6  and  C_8
REMARK    6  A    between atoms: C_6  and  C_9
REMARK    7  A    between atoms: C_10  and  O_25
REMARK    8  A    between atoms: C_11  and  O_17
REMARK    9  A    between atoms: O_17  and  C_18
REMARK   10  A    between atoms: C_21  and  C_23
REMARK   11  A    between atoms: O_25  and  C_26
REMARK                            x       y       z     vdW  Elec       q    Type
REMARK                         _______ _______ _______ _____ _____    ______ ____
ROOT
ATOM      1  C   UNL     1      21.936  45.594  21.807  0.00  0.00    +0.000 C 
ATOM      2  C   UNL     1      21.030  45.953  20.692  0.00  0.00    +0.000 C 
ATOM      3  C   UNL     1      20.181  45.874  22.229  0.00  0.00    +0.000 C 
ATOM      4  C   UNL     1      19.675  44.295  23.008  0.00  0.00    +0.000 C 
ATOM      5  C   UNL     1      20.725  43.219  23.086  0.00  0.00    +0.000 C 
ATOM      6  C   UNL     1      21.701  44.239  23.329  0.00  0.00    +0.000 C 
ATOM      7  C   UNL     1      21.978  44.297  25.009  0.00  0.00    +0.000 C 
ATOM      8  O   UNL     1      22.934  43.726  24.173  0.00  0.00    +0.000 OA
ENDROOT
BRANCH   1  10
ATOM      9  C   UNL     1      24.201  46.836  21.091  0.00  0.00    +0.000 C 
ATOM     10  C   UNL     1      22.819  46.938  21.700  0.00  0.00    +0.000 C 
ATOM     11  O   UNL     1      24.105  46.910  22.478  0.00  0.00    +0.000 OA
ATOM     12  C   UNL     1      21.898  48.329  21.850  0.00  0.00    +0.000 C 
BRANCH   9  13
ATOM     13  C   UNL     1      24.688  48.045  20.450  0.00  0.00    +0.000 C 
BRANCH  13  16
ATOM     14  C   UNL     1      27.365  50.321  22.072  0.00  0.00    +0.000 C 
ATOM     15  C   UNL     1      26.109  49.923  21.361  0.00  0.00    +0.000 C 
ATOM     16  C   UNL     1      25.833  48.639  21.197  0.00  0.00    +0.000 C 
ATOM     17  C   UNL     1      25.170  50.943  20.854  0.00  0.00    +0.000 C 
ENDBRANCH  13  16
ENDBRANCH   9  13
ENDBRANCH   1  10
BRANCH   2  18
ATOM     18  O   UNL     1      21.197  47.085  19.840  0.00  0.00    +0.000 OA
ATOM     19  C   UNL     1      21.589  46.730  18.541  0.00  0.00    +0.000 C 
ENDBRANCH   2  18
BRANCH   3  20
ATOM     20  O   UNL     1      21.369  46.257  23.505  0.00  0.00    +0.000 OA
BRANCH  20  21
ATOM     21  C   UNL     1      20.973  47.326  24.870  0.00  0.00    +0.000 C 
ATOM     22  O   UNL     1      21.931  47.443  25.720  0.00  0.00    +0.000 OA
ATOM     23  N   UNL     1      19.335  48.098  24.800  0.00  0.00    +0.000 N 
ATOM     24  C   UNL     1      18.026  48.210  23.559  0.00  0.00    +0.000 C 
ATOM     25  O   UNL     1      17.598  49.374  23.470  0.00  0.00    +0.000 OA
ATOM     26  H   UNL     1      19.568  49.068  25.066  0.00  0.00    +0.000 HD
BRANCH  24  27
ATOM     27  C   UNL     1      17.476  47.008  22.047  0.00  0.00    +0.000 C 
ATOM     28 CL   UNL     1      16.026  45.554  21.416  0.00  0.00    +0.000 Cl
ENDBRANCH  24  27
ENDBRANCH  20  21
ENDBRANCH   3  20
TORSDOF 7
ENDMDL
MODEL 6
REMARK VINA RESULT:    -5.392     12.625     16.037
REMARK INTER + INTRA:          -4.764
REMARK INTER:                  -6.819
REMARK INTRA:                   2.054
REMARK UNBOUND:                 1.888
REMARK  Name = 
REMARK  11 active torsions:
REMARK  status: ('A' for Active; 'I' for Inactive)
REMARK    1  A    between atoms: C_1  and  C_2
REMARK    2  A    between atoms: C_2  and  C_27
REMARK    3  A    between atoms: C_3  and  C_4
REMARK    4  A    between atoms: C_4  and  C_5
REMARK    5  A    between atoms: C_6  and  C_8
REMARK    6  A    between atoms: C_6  and  C_9
REMARK    7  A    between atoms: C_10  and  O_25
REMARK    8  A    between atoms: C_11  and  O_17
REMARK    9  A    between atoms: O_17  and  C_18
REMARK   10  A    between atoms: C_21  and  C_23
REMARK   11  A    between atoms: O_25  and  C_26
REMARK                            x       y       z     vdW  Elec       q    Type
REMARK                         _______ _______ _______ _____ _____    ______ ____
ROOT
ATOM      1  C   UNL     1      15.329  31.952  21.581  0.00  0.00    +0.000 C 
ATOM      2  C   UNL     1      16.377  32.967  21.320  0.00  0.00    +0.000 C 
ATOM      3  C   UNL     1      15.534  32.498  19.850  0.00  0.00    +0.000 C 
ATOM      4  C   UNL     1      15.885  30.940  18.952  0.00  0.00    +0.000 C 
ATOM      5  C   UNL     1      15.946  29.687  19.784  0.00  0.00    +0.000 C 
ATOM      6  C   UNL     1      14.886  30.212  20.590  0.00  0.00    +0.000 C 
ATOM      7  C   UNL     1      13.432  29.501  20.056  0.00  0.00    +0.000 C 
ATOM      8  O   UNL     1      14.001  29.087  21.258  0.00  0.00    +0.000 OA
ENDROOT
BRANCH   1  10
ATOM      9  C   UNL     1      14.397  32.697  23.981  0.00  0.00    +0.000 C 
ATOM     10  C   UNL     1      14.421  32.928  22.486  0.00  0.00    +0.000 C 
ATOM     11  O   UNL     1      13.313  32.242  23.236  0.00  0.00    +0.000 OA
ATOM     12  C   UNL     1      14.006  34.343  21.692  0.00  0.00    +0.000 C 
BRANCH   9  13
ATOM     13  C   UNL     1      14.130  33.874  24.789  0.00  0.00    +0.000 C 
BRANCH  13  16
ATOM     14  C   UNL     1      16.226  33.979  28.040  0.00  0.00    +0.000 C 
ATOM     15  C   UNL     1      15.128  33.609  27.094  0.00  0.00    +0.000 C 
ATOM     16  C   UNL     1      15.162  34.058  25.849  0.00  0.00    +0.000 C 
ATOM     17  C   UNL     1      14.015  32.740  27.527  0.00  0.00    +0.000 C 
ENDBRANCH  13  16
ENDBRANCH   9  13
ENDBRANCH   1  10
BRANCH   2  18
ATOM     18  O   UNL     1      16.431  34.256  21.927  0.00  0.00    +0.000 OA
ATOM     19  C   UNL     1      17.744  34.696  22.146  0.00  0.00    +0.000 C 
ENDBRANCH   2  18
BRANCH   3  20
ATOM     20  O   UNL     1      13.891  31.989  20.328  0.00  0.00    +0.000 OA
BRANCH  20  21
ATOM     21  C   UNL     1      12.446  32.509  19.430  0.00  0.00    +0.000 C 
ATOM     22  O   UNL     1      12.720  33.205  18.384  0.00  0.00    +0.000 OA
ATOM     23  N   UNL     1      10.866  31.932  20.103  0.00  0.00    +0.000 N 
ATOM     24  C   UNL     1      10.375  30.765  21.393  0.00  0.00    +0.000 C 
ATOM     25  O   UNL     1       9.460  30.023  20.994  0.00  0.00    +0.000 OA
ATOM     26  H   UNL     1      10.388  31.630  19.239  0.00  0.00    +0.000 HD
BRANCH  24  27
ATOM     27  C   UNL     1      11.271  30.142  23.079  0.00  0.00    +0.000 C 
ATOM     28 CL   UNL     1      10.922  29.388  25.060  0.00  0.00    +0.000 Cl
ENDBRANCH  24  27
ENDBRANCH  20  21
ENDBRANCH   3  20
TORSDOF 7
ENDMDL
MODEL 7
REMARK VINA RESULT:    -4.941     30.212     33.806
REMARK INTER + INTRA:          -4.209
REMARK INTER:                  -6.037
REMARK INTRA:                   1.829
REMARK UNBOUND:                 1.888
REMARK  Name = 
REMARK  11 active torsions:
REMARK  status: ('A' for Active; 'I' for Inactive)
REMARK    1  A    between atoms: C_1  and  C_2
REMARK    2  A    between atoms: C_2  and  C_27
REMARK    3  A    between atoms: C_3  and  C_4
REMARK    4  A    between atoms: C_4  and  C_5
REMARK    5  A    between atoms: C_6  and  C_8
REMARK    6  A    between atoms: C_6  and  C_9
REMARK    7  A    between atoms: C_10  and  O_25
REMARK    8  A    between atoms: C_11  and  O_17
REMARK    9  A    between atoms: O_17  and  C_18
REMARK   10  A    between atoms: C_21  and  C_23
REMARK   11  A    between atoms: O_25  and  C_26
REMARK                            x       y       z     vdW  Elec       q    Type
REMARK                         _______ _______ _______ _____ _____    ______ ____
ROOT
ATOM      1  C   UNL     1      34.532  32.132  -3.396  0.00  0.00    +0.000 C 
ATOM      2  C   UNL     1      33.151  32.583  -3.105  0.00  0.00    +0.000 C 
ATOM      3  C   UNL     1      33.174  31.151  -4.124  0.00  0.00    +0.000 C 
ATOM      4  C   UNL     1      33.522  31.212  -5.922  0.00  0.00    +0.000 C 
ATOM      5  C   UNL     1      34.727  32.011  -6.344  0.00  0.00    +0.000 C 
ATOM      6  C   UNL     1      35.398  31.556  -5.164  0.00  0.00    +0.000 C 
ATOM      7  C   UNL     1      36.403  30.254  -5.612  0.00  0.00    +0.000 C 
ATOM      8  O   UNL     1      36.968  31.495  -5.330  0.00  0.00    +0.000 OA
ENDROOT
BRANCH   1  10
ATOM      9  C   UNL     1      35.858  32.642  -1.123  0.00  0.00    +0.000 C 
ATOM     10  C   UNL     1      34.877  31.761  -1.867  0.00  0.00    +0.000 C 
ATOM     11  O   UNL     1      36.319  31.422  -1.610  0.00  0.00    +0.000 OA
ATOM     12  C   UNL     1      33.746  30.733  -1.181  0.00  0.00    +0.000 C 
BRANCH   9  13
ATOM     13  C   UNL     1      35.679  32.694   0.317  0.00  0.00    +0.000 C 
BRANCH  13  16
ATOM     14  C   UNL     1      38.573  32.469   2.877  0.00  0.00    +0.000 C 
ATOM     15  C   UNL     1      37.176  32.512   2.344  0.00  0.00    +0.000 C 
ATOM     16  C   UNL     1      36.979  32.561   1.036  0.00  0.00    +0.000 C 
ATOM     17  C   UNL     1      36.015  32.485   3.256  0.00  0.00    +0.000 C 
ENDBRANCH  13  16
ENDBRANCH   9  13
ENDBRANCH   1  10
BRANCH   2  18
ATOM     18  O   UNL     1      32.599  32.720  -1.797  0.00  0.00    +0.000 OA
ATOM     19  C   UNL     1      32.076  34.000  -1.563  0.00  0.00    +0.000 C 
ENDBRANCH   2  18
BRANCH   3  20
ATOM     20  O   UNL     1      34.674  30.261  -3.745  0.00  0.00    +0.000 OA
BRANCH  20  21
ATOM     21  C   UNL     1      34.664  28.527  -3.348  0.00  0.00    +0.000 C 
ATOM     22  O   UNL     1      33.508  27.980  -3.486  0.00  0.00    +0.000 OA
ATOM     23  N   UNL     1      36.270  27.830  -2.881  0.00  0.00    +0.000 N 
ATOM     24  C   UNL     1      37.976  28.426  -2.896  0.00  0.00    +0.000 C 
ATOM     25  O   UNL     1      38.741  27.567  -3.370  0.00  0.00    +0.000 OA
ATOM     26  H   UNL     1      36.263  26.951  -3.424  0.00  0.00    +0.000 HD
BRANCH  24  27
ATOM     27  C   UNL     1      38.780  30.261  -2.751  0.00  0.00    +0.000 C 
ATOM     28 CL   UNL     1      39.715  31.650  -1.407  0.00  0.00    +0.000 Cl
ENDBRANCH  24  27
ENDBRANCH  20  21
ENDBRANCH   3  20
TORSDOF 7
ENDMDL
MODEL 8
REMARK VINA RESULT:    -4.913     14.006     16.446
REMARK INTER + INTRA:          -4.174
REMARK INTER:                  -6.422
REMARK INTRA:                   2.248
REMARK UNBOUND:                 1.888
REMARK  Name = 
REMARK  11 active torsions:
REMARK  status: ('A' for Active; 'I' for Inactive)
REMARK    1  A    between atoms: C_1  and  C_2
REMARK    2  A    between atoms: C_2  and  C_27
REMARK    3  A    between atoms: C_3  and  C_4
REMARK    4  A    between atoms: C_4  and  C_5
REMARK    5  A    between atoms: C_6  and  C_8
REMARK    6  A    between atoms: C_6  and  C_9
REMARK    7  A    between atoms: C_10  and  O_25
REMARK    8  A    between atoms: C_11  and  O_17
REMARK    9  A    between atoms: O_17  and  C_18
REMARK   10  A    between atoms: C_21  and  C_23
REMARK   11  A    between atoms: O_25  and  C_26
REMARK                            x       y       z     vdW  Elec       q    Type
REMARK                         _______ _______ _______ _____ _____    ______ ____
ROOT
ATOM      1  C   UNL     1      10.974  36.115  15.965  0.00  0.00    +0.000 C 
ATOM      2  C   UNL     1      10.328  37.393  16.345  0.00  0.00    +0.000 C 
ATOM      3  C   UNL     1       9.443  36.562  15.074  0.00  0.00    +0.000 C 
ATOM      4  C   UNL     1       9.964  36.583  13.318  0.00  0.00    +0.000 C 
ATOM      5  C   UNL     1      11.413  36.281  13.045  0.00  0.00    +0.000 C 
ATOM      6  C   UNL     1      11.379  35.329  14.114  0.00  0.00    +0.000 C 
ATOM      7  C   UNL     1      11.174  33.785  13.422  0.00  0.00    +0.000 C 
ATOM      8  O   UNL     1      12.418  34.153  13.929  0.00  0.00    +0.000 OA
ENDROOT
BRANCH   1  10
ATOM      9  C   UNL     1      11.935  35.174  18.283  0.00  0.00    +0.000 C 
ATOM     10  C   UNL     1      10.733  35.413  17.395  0.00  0.00    +0.000 C 
ATOM     11  O   UNL     1      11.426  34.091  17.572  0.00  0.00    +0.000 OA
ATOM     12  C   UNL     1       9.132  35.475  17.884  0.00  0.00    +0.000 C 
BRANCH   9  13
ATOM     13  C   UNL     1      11.660  35.149  19.709  0.00  0.00    +0.000 C 
BRANCH  13  16
ATOM     14  C   UNL     1      14.798  35.694  21.907  0.00  0.00    +0.000 C 
ATOM     15  C   UNL     1      13.777  34.983  21.075  0.00  0.00    +0.000 C 
ATOM     16  C   UNL     1      12.809  35.677  20.498  0.00  0.00    +0.000 C 
ATOM     17  C   UNL     1      13.845  33.521  20.878  0.00  0.00    +0.000 C 
ENDBRANCH  13  16
ENDBRANCH   9  13
ENDBRANCH   1  10
BRANCH   2  18
ATOM     18  O   UNL     1       9.879  37.718  17.659  0.00  0.00    +0.000 OA
ATOM     19  C   UNL     1      10.169  39.042  18.017  0.00  0.00    +0.000 C 
ENDBRANCH   2  18
BRANCH   3  20
ATOM     20  O   UNL     1       9.760  34.816  15.269  0.00  0.00    +0.000 OA
BRANCH  20  21
ATOM     21  C   UNL     1       8.450  33.614  15.253  0.00  0.00    +0.000 C 
ATOM     22  O   UNL     1       8.873  32.399  15.272  0.00  0.00    +0.000 OA
ATOM     23  N   UNL     1       6.771  34.296  15.271  0.00  0.00    +0.000 N 
ATOM     24  C   UNL     1       6.062  35.943  15.496  0.00  0.00    +0.000 C 
ATOM     25  O   UNL     1       5.099  35.907  16.282  0.00  0.00    +0.000 OA
ATOM     26  H   UNL     1       6.324  33.687  15.974  0.00  0.00    +0.000 HD
BRANCH  24  27
ATOM     27  C   UNL     1       6.762  37.789  15.128  0.00  0.00    +0.000 C 
ATOM     28 CL   UNL     1       6.226  39.747  14.424  0.00  0.00    +0.000 Cl
ENDBRANCH  24  27
ENDBRANCH  20  21
ENDBRANCH   3  20
TORSDOF 7
ENDMDL
MODEL 9
REMARK VINA RESULT:    -4.894     28.560     30.923
REMARK INTER + INTRA:          -4.150
REMARK INTER:                  -6.028
REMARK INTRA:                   1.878
REMARK UNBOUND:                 1.888
REMARK  Name = 
REMARK  11 active torsions:
REMARK  status: ('A' for Active; 'I' for Inactive)
REMARK    1  A    between atoms: C_1  and  C_2
REMARK    2  A    between atoms: C_2  and  C_27
REMARK    3  A    between atoms: C_3  and  C_4
REMARK    4  A    between atoms: C_4  and  C_5
REMARK    5  A    between atoms: C_6  and  C_8
REMARK    6  A    between atoms: C_6  and  C_9
REMARK    7  A    between atoms: C_10  and  O_25
REMARK    8  A    between atoms: C_11  and  O_17
REMARK    9  A    between atoms: O_17  and  C_18
REMARK   10  A    between atoms: C_21  and  C_23
REMARK   11  A    between atoms: O_25  and  C_26
REMARK                            x       y       z     vdW  Elec       q    Type
REMARK                         _______ _______ _______ _____ _____    ______ ____
ROOT
ATOM      1  C   UNL     1      34.690  33.654   1.048  0.00  0.00    +0.000 C 
ATOM      2  C   UNL     1      33.926  34.867   0.673  0.00  0.00    +0.000 C 
ATOM      3  C   UNL     1      35.632  35.214   0.921  0.00  0.00    +0.000 C 
ATOM      4  C   UNL     1      36.381  35.394   2.583  0.00  0.00    +0.000 C 
ATOM      5  C   UNL     1      36.052  34.321   3.587  0.00  0.00    +0.000 C 
ATOM      6  C   UNL     1      36.087  33.364   2.522  0.00  0.00    +0.000 C 
ATOM      7  C   UNL     1      37.610  32.601   2.565  0.00  0.00    +0.000 C 
ATOM      8  O   UNL     1      36.483  31.913   3.007  0.00  0.00    +0.000 OA
ENDROOT
BRANCH   1  10
ATOM      9  C   UNL     1      33.527  31.704  -0.377  0.00  0.00    +0.000 C 
ATOM     10  C   UNL     1      34.448  32.905  -0.358  0.00  0.00    +0.000 C 
ATOM     11  O   UNL     1      34.899  31.471  -0.393  0.00  0.00    +0.000 OA
ATOM     12  C   UNL     1      34.883  33.845  -1.674  0.00  0.00    +0.000 C 
BRANCH   9  13
ATOM     13  C   UNL     1      32.852  31.457  -1.639  0.00  0.00    +0.000 C 
BRANCH  13  16
ATOM     14  C   UNL     1      33.913  28.299  -3.609  0.00  0.00    +0.000 C 
ATOM     15  C   UNL     1      33.832  29.740  -3.210  0.00  0.00    +0.000 C 
ATOM     16  C   UNL     1      33.124  30.081  -2.145  0.00  0.00    +0.000 C 
ATOM     17  C   UNL     1      34.543  30.780  -3.979  0.00  0.00    +0.000 C 
ENDBRANCH  13  16
ENDBRANCH   9  13
ENDBRANCH   1  10
BRANCH   2  18
ATOM     18  O   UNL     1      33.167  35.013  -0.525  0.00  0.00    +0.000 OA
ATOM     19  C   UNL     1      32.206  36.030  -0.435  0.00  0.00    +0.000 C 
ENDBRANCH   2  18
BRANCH   3  20
ATOM     20  O   UNL     1      36.531  33.718   0.549  0.00  0.00    +0.000 OA
BRANCH  20  21
ATOM     21  C   UNL     1      37.973  33.721  -0.493  0.00  0.00    +0.000 C 
ATOM     22  O   UNL     1      38.626  32.613  -0.461  0.00  0.00    +0.000 OA
ATOM     23  N   UNL     1      38.237  35.239  -1.447  0.00  0.00    +0.000 N 
ATOM     24  C   UNL     1      37.273  36.734  -1.764  0.00  0.00    +0.000 C 
ATOM     25  O   UNL     1      37.296  37.029  -2.971  0.00  0.00    +0.000 OA
ATOM     26  H   UNL     1      38.477  34.845  -2.371  0.00  0.00    +0.000 HD
BRANCH  24  27
ATOM     27  C   UNL     1      35.864  37.697  -0.704  0.00  0.00    +0.000 C 
ATOM     28 CL   UNL     1      35.494  38.801   1.101  0.00  0.00    +0.000 Cl
ENDBRANCH  24  27
ENDBRANCH  20  21
ENDBRANCH   3  20
TORSDOF 7
ENDMDL
