MODEL 1
REMARK VINA RESULT:    -6.016      0.000      0.000
REMARK INTER + INTRA:          -8.025
REMARK INTER:                  -9.181
REMARK INTRA:                   1.156
REMARK UNBOUND:                 1.156
REMARK  Name = 
REMARK  18 active torsions:
REMARK  status: ('A' for Active; 'I' for Inactive)
REMARK    1  A    between atoms: C_1  and  C_2
REMARK    2  A    between atoms: C_2  and  C_36
REMARK    3  A    between atoms: C_3  and  C_4
REMARK    4  A    between atoms: C_4  and  C_5
REMARK    5  A    between atoms: C_6  and  C_8
REMARK    6  A    between atoms: C_6  and  C_9
REMARK    7  A    between atoms: C_10  and  O_34
REMARK    8  A    between atoms: C_11  and  O_17
REMARK    9  A    between atoms: O_17  and  C_18
REMARK   10  A    between atoms: C_18  and  C_20
REMARK   11  A    between atoms: C_21  and  C_22
REMARK   12  A    between atoms: C_25  and  O_28
REMARK   13  A    between atoms: O_28  and  C_29
REMARK   14  A    between atoms: C_29  and  C_30
REMARK   15  A    between atoms: C_30  and  N_31
REMARK   16  A    between atoms: N_31  and  C_32
REMARK   17  A    between atoms: N_31  and  C_33
REMARK   18  A    between atoms: O_34  and  C_35
REMARK                            x       y       z     vdW  Elec       q    Type
REMARK                         _______ _______ _______ _____ _____    ______ ____
ROOT
ATOM      1  C   UNL     1       3.905   7.740  19.639  0.00  0.00    +0.000 C 
ATOM      2  C   UNL     1       5.255   8.406  19.666  0.00  0.00    +0.000 C 
ATOM      3  C   UNL     1       4.468   9.338  20.642  0.00  0.00    +0.000 C 
ATOM      4  C   UNL     1       3.714  10.558  19.976  0.00  0.00    +0.000 C 
ATOM      5  C   UNL     1       2.612  10.128  19.069  0.00  0.00    +0.000 C 
ATOM      6  C   UNL     1       2.232   8.863  19.633  0.00  0.00    +0.000 C 
ATOM      7  C   UNL     1       0.709   8.948  20.618  0.00  0.00    +0.000 C 
ATOM      8  O   UNL     1       0.893   8.257  19.453  0.00  0.00    +0.000 OA
ENDROOT
BRANCH   1  10
ATOM      9  C   UNL     1       4.281   5.086  20.045  0.00  0.00    +0.000 C 
ATOM     10  C   UNL     1       4.316   6.458  20.663  0.00  0.00    +0.000 C 
ATOM     11  O   UNL     1       3.183   5.490  20.801  0.00  0.00    +0.000 OA
ATOM     12  C   UNL     1       5.082   6.791  22.156  0.00  0.00    +0.000 C 
BRANCH   9  13
ATOM     13  C   UNL     1       5.065   4.025  20.671  0.00  0.00    +0.000 C 
BRANCH  13  16
ATOM     14  C   UNL     1       8.536   3.376  19.040  0.00  0.00    +0.000 C 
ATOM     15  C   UNL     1       7.524   3.840  20.046  0.00  0.00    +0.000 C 
ATOM     16  C   UNL     1       6.235   3.597  19.840  0.00  0.00    +0.000 C 
ATOM     17  C   UNL     1       7.961   4.558  21.264  0.00  0.00    +0.000 C 
ENDBRANCH  13  16
ENDBRANCH   9  13
ENDBRANCH   1  10
BRANCH   2  18
ATOM     18  O   UNL     1       6.388   7.627  20.081  0.00  0.00    +0.000 OA
ATOM     19  C   UNL     1       7.467   7.650  19.176  0.00  0.00    +0.000 C 
ENDBRANCH   2  18
BRANCH   3  20
ATOM     20  O   UNL     1       3.114   8.331  21.333  0.00  0.00    +0.000 OA
BRANCH  20  21
ATOM     21  C   UNL     1       2.507   8.148  23.036  0.00  0.00    +0.000 C 
ATOM     22  O   UNL     1       1.757   7.246  23.250  0.00  0.00    +0.000 OA
BRANCH  21  23
ATOM     23  C   UNL     1       3.124   9.416  24.414  0.00  0.00    +0.000 C 
ATOM     24  C   UNL     1       4.387   9.986  24.774  0.00  0.00    +0.000 C 
BRANCH  24  25
ATOM     25  C   UNL     1       5.590   9.494  25.647  0.00  0.00    +0.000 A 
ATOM     26  C   UNL     1       6.395  10.276  26.517  0.00  0.00    +0.000 A 
ATOM     27  C   UNL     1       7.556   9.772  27.137  0.00  0.00    +0.000 A 
ATOM     28  C   UNL     1       7.952   8.476  26.808  0.00  0.00    +0.000 A 
ATOM     29  C   UNL     1       6.996   7.587  26.283  0.00  0.00    +0.000 A 
ATOM     30  C   UNL     1       5.812   8.098  25.724  0.00  0.00    +0.000 A 
BRANCH  28  31
ATOM     31  O   UNL     1       9.259   8.163  26.431  0.00  0.00    +0.000 OA
BRANCH  31  32
ATOM     32  C   UNL     1       9.501   7.451  25.185  0.00  0.00    +0.000 C 
BRANCH  32  33
ATOM     33  C   UNL     1      10.898   7.524  24.419  0.00  0.00    +0.000 C 
BRANCH  33  34
ATOM     34  N   UNL     1      10.839   8.001  23.041  0.00  0.00    +0.000 NA
ATOM     35  C   UNL     1      11.756   7.483  22.052  0.00  0.00    +0.000 C 
ATOM     36  C   UNL     1       9.545   7.647  22.491  0.00  0.00    +0.000 C 
ENDBRANCH  33  34
ENDBRANCH  32  33
ENDBRANCH  31  32
ENDBRANCH  28  31
ENDBRANCH  24  25
ENDBRANCH  21  23
ENDBRANCH  20  21
ENDBRANCH   3  20
TORSDOF 12
ENDMDL
MODEL 2
REMARK VINA RESULT:    -5.985      1.870      5.955
REMARK INTER + INTRA:          -7.979
REMARK INTER:                  -8.988
REMARK INTRA:                   1.010
REMARK UNBOUND:                 1.156
REMARK  Name = 
REMARK  18 active torsions:
REMARK  status: ('A' for Active; 'I' for Inactive)
REMARK    1  A    between atoms: C_1  and  C_2
REMARK    2  A    between atoms: C_2  and  C_36
REMARK    3  A    between atoms: C_3  and  C_4
REMARK    4  A    between atoms: C_4  and  C_5
REMARK    5  A    between atoms: C_6  and  C_8
REMARK    6  A    between atoms: C_6  and  C_9
REMARK    7  A    between atoms: C_10  and  O_34
REMARK    8  A    between atoms: C_11  and  O_17
REMARK    9  A    between atoms: O_17  and  C_18
REMARK   10  A    between atoms: C_18  and  C_20
REMARK   11  A    between atoms: C_21  and  C_22
REMARK   12  A    between atoms: C_25  and  O_28
REMARK   13  A    between atoms: O_28  and  C_29
REMARK   14  A    between atoms: C_29  and  C_30
REMARK   15  A    between atoms: C_30  and  N_31
REMARK   16  A    between atoms: N_31  and  C_32
REMARK   17  A    between atoms: N_31  and  C_33
REMARK   18  A    between atoms: O_34  and  C_35
REMARK                            x       y       z     vdW  Elec       q    Type
REMARK                         _______ _______ _______ _____ _____    ______ ____
ROOT
ATOM      1  C   UNL     1       4.017   7.079  22.045  0.00  0.00    +0.000 C 
ATOM      2  C   UNL     1       4.499   7.902  23.210  0.00  0.00    +0.000 C 
ATOM      3  C   UNL     1       5.861   7.582  22.515  0.00  0.00    +0.000 C 
ATOM      4  C   UNL     1       6.573   6.246  22.973  0.00  0.00    +0.000 C 
ATOM      5  C   UNL     1       5.796   5.026  22.612  0.00  0.00    +0.000 C 
ATOM      6  C   UNL     1       5.067   5.464  21.454  0.00  0.00    +0.000 C 
ATOM      7  C   UNL     1       5.774   4.861  19.895  0.00  0.00    +0.000 C 
ATOM      8  O   UNL     1       4.551   4.542  20.417  0.00  0.00    +0.000 OA
ENDROOT
BRANCH   1  10
ATOM      9  C   UNL     1       1.994   8.408  20.823  0.00  0.00    +0.000 C 
ATOM     10  C   UNL     1       3.470   8.383  21.117  0.00  0.00    +0.000 C 
ATOM     11  O   UNL     1       2.848   7.916  19.839  0.00  0.00    +0.000 OA
ATOM     12  C   UNL     1       4.489   9.739  20.895  0.00  0.00    +0.000 C 
BRANCH   9  13
ATOM     13  C   UNL     1       1.378   9.686  20.479  0.00  0.00    +0.000 C 
BRANCH  13  16
ATOM     14  C   UNL     1      -0.849   9.608  17.291  0.00  0.00    +0.000 C 
ATOM     15  C   UNL     1       0.386   9.718  18.137  0.00  0.00    +0.000 C 
ATOM     16  C   UNL     1       0.297   9.554  19.451  0.00  0.00    +0.000 C 
ATOM     17  C   UNL     1       1.695  10.000  17.508  0.00  0.00    +0.000 C 
ENDBRANCH  13  16
ENDBRANCH   9  13
ENDBRANCH   1  10
BRANCH   2  18
ATOM     18  O   UNL     1       3.995   9.240  23.350  0.00  0.00    +0.000 OA
ATOM     19  C   UNL     1       4.170   9.790  24.635  0.00  0.00    +0.000 C 
ENDBRANCH   2  18
BRANCH   3  20
ATOM     20  O   UNL     1       5.483   7.279  20.758  0.00  0.00    +0.000 OA
BRANCH  20  21
ATOM     21  C   UNL     1       6.421   7.658  19.248  0.00  0.00    +0.000 C 
ATOM     22  O   UNL     1       5.804   8.079  18.319  0.00  0.00    +0.000 OA
BRANCH  21  23
ATOM     23  C   UNL     1       8.372   7.376  19.237  0.00  0.00    +0.000 C 
ATOM     24  C   UNL     1       9.259   6.408  19.810  0.00  0.00    +0.000 C 
BRANCH  24  25
ATOM     25  C   UNL     1       9.921   6.242  21.219  0.00  0.00    +0.000 A 
ATOM     26  C   UNL     1      10.153   5.029  21.920  0.00  0.00    +0.000 A 
ATOM     27  C   UNL     1      10.609   4.997  23.254  0.00  0.00    +0.000 A 
ATOM     28  C   UNL     1      10.758   6.216  23.914  0.00  0.00    +0.000 A 
ATOM     29  C   UNL     1      10.910   7.388  23.149  0.00  0.00    +0.000 A 
ATOM     30  C   UNL     1      10.510   7.389  21.802  0.00  0.00    +0.000 A 
BRANCH  28  31
ATOM     31  O   UNL     1      10.226   6.453  25.182  0.00  0.00    +0.000 OA
BRANCH  31  32
ATOM     32  C   UNL     1      10.102   7.818  25.670  0.00  0.00    +0.000 C 
BRANCH  32  33
ATOM     33  C   UNL     1       9.363   8.170  27.039  0.00  0.00    +0.000 C 
BRANCH  33  34
ATOM     34  N   UNL     1       7.991   8.651  26.911  0.00  0.00    +0.000 NA
ATOM     35  C   UNL     1       7.590   9.886  27.545  0.00  0.00    +0.000 C 
ATOM     36  C   UNL     1       7.728   8.913  25.509  0.00  0.00    +0.000 C 
ENDBRANCH  33  34
ENDBRANCH  32  33
ENDBRANCH  31  32
ENDBRANCH  28  31
ENDBRANCH  24  25
ENDBRANCH  21  23
ENDBRANCH  20  21
ENDBRANCH   3  20
TORSDOF 12
ENDMDL
MODEL 3
REMARK VINA RESULT:    -5.958     25.861     27.904
REMARK INTER + INTRA:          -7.937
REMARK INTER:                  -9.373
REMARK INTRA:                   1.436
REMARK UNBOUND:                 1.156
REMARK  Name = 
REMARK  18 active torsions:
REMARK  status: ('A' for Active; 'I' for Inactive)
REMARK    1  A    between atoms: C_1  and  C_2
REMARK    2  A    between atoms: C_2  and  C_36
REMARK    3  A    between atoms: C_3  and  C_4
REMARK    4  A    between atoms: C_4  and  C_5
REMARK    5  A    between atoms: C_6  and  C_8
REMARK    6  A    between atoms: C_6  and  C_9
REMARK    7  A    between atoms: C_10  and  O_34
REMARK    8  A    between atoms: C_11  and  O_17
REMARK    9  A    between atoms: O_17  and  C_18
REMARK   10  A    between atoms: C_18  and  C_20
REMARK   11  A    between atoms: C_21  and  C_22
REMARK   12  A    between atoms: C_25  and  O_28
REMARK   13  A    between atoms: O_28  and  C_29
REMARK   14  A    between atoms: C_29  and  C_30
REMARK   15  A    between atoms: C_30  and  N_31
REMARK   16  A    between atoms: N_31  and  C_32
REMARK   17  A    between atoms: N_31  and  C_33
REMARK   18  A    between atoms: O_34  and  C_35
REMARK                            x       y       z     vdW  Elec       q    Type
REMARK                         _______ _______ _______ _____ _____    ______ ____
ROOT
ATOM      1  C   UNL     1      13.727  31.598  19.935  0.00  0.00    +0.000 C 
ATOM      2  C   UNL     1      14.781  32.490  19.336  0.00  0.00    +0.000 C 
ATOM      3  C   UNL     1      14.701  33.086  20.778  0.00  0.00    +0.000 C 
ATOM      4  C   UNL     1      13.637  34.237  20.991  0.00  0.00    +0.000 C 
ATOM      5  C   UNL     1      12.234  33.764  20.820  0.00  0.00    +0.000 C 
ATOM      6  C   UNL     1      12.339  32.375  21.172  0.00  0.00    +0.000 C 
ATOM      7  C   UNL     1      11.722  32.013  22.841  0.00  0.00    +0.000 C 
ATOM      8  O   UNL     1      11.196  31.568  21.659  0.00  0.00    +0.000 OA
ENDROOT
BRANCH   1  10
ATOM      9  C   UNL     1      14.428  29.042  19.362  0.00  0.00    +0.000 C 
ATOM     10  C   UNL     1      14.737  30.265  20.184  0.00  0.00    +0.000 C 
ATOM     11  O   UNL     1      13.965  29.081  20.675  0.00  0.00    +0.000 OA
ATOM     12  C   UNL     1      16.214  30.478  21.020  0.00  0.00    +0.000 C 
BRANCH   9  13
ATOM     13  C   UNL     1      15.492  28.066  19.145  0.00  0.00    +0.000 C 
BRANCH  13  16
ATOM     14  C   UNL     1      18.301  28.786  16.553  0.00  0.00    +0.000 C 
ATOM     15  C   UNL     1      17.656  28.369  17.842  0.00  0.00    +0.000 C 
ATOM     16  C   UNL     1      16.332  28.376  17.944  0.00  0.00    +0.000 C 
ATOM     17  C   UNL     1      18.490  27.945  18.988  0.00  0.00    +0.000 C 
ENDBRANCH  13  16
ENDBRANCH   9  13
ENDBRANCH   1  10
BRANCH   2  18
ATOM     18  O   UNL     1      15.971  31.878  18.815  0.00  0.00    +0.000 OA
ATOM     19  C   UNL     1      16.175  32.094  17.438  0.00  0.00    +0.000 C 
ENDBRANCH   2  18
BRANCH   3  20
ATOM     20  O   UNL     1      14.096  31.746  21.855  0.00  0.00    +0.000 OA
BRANCH  20  21
ATOM     21  C   UNL     1      14.572  31.256  23.539  0.00  0.00    +0.000 C 
ATOM     22  O   UNL     1      14.318  30.139  23.870  0.00  0.00    +0.000 OA
BRANCH  21  23
ATOM     23  C   UNL     1      15.481  32.567  24.697  0.00  0.00    +0.000 C 
ATOM     24  C   UNL     1      15.225  33.919  25.092  0.00  0.00    +0.000 C 
BRANCH  24  25
ATOM     25  C   UNL     1      15.505  35.313  24.436  0.00  0.00    +0.000 A 
ATOM     26  C   UNL     1      15.090  36.585  24.913  0.00  0.00    +0.000 A 
ATOM     27  C   UNL     1      15.255  37.768  24.165  0.00  0.00    +0.000 A 
ATOM     28  C   UNL     1      15.777  37.650  22.878  0.00  0.00    +0.000 A 
ATOM     29  C   UNL     1      16.530  36.506  22.553  0.00  0.00    +0.000 A 
ATOM     30  C   UNL     1      16.405  35.351  23.344  0.00  0.00    +0.000 A 
BRANCH  28  31
ATOM     31  O   UNL     1      15.181  38.249  21.766  0.00  0.00    +0.000 OA
BRANCH  31  32
ATOM     32  C   UNL     1      14.339  39.422  21.942  0.00  0.00    +0.000 C 
BRANCH  32  33
ATOM     33  C   UNL     1      13.634  40.156  20.715  0.00  0.00    +0.000 C 
BRANCH  33  34
ATOM     34  N   UNL     1      13.158  41.510  20.977  0.00  0.00    +0.000 NA
ATOM     35  C   UNL     1      11.807  41.732  21.436  0.00  0.00    +0.000 C 
ATOM     36  C   UNL     1      13.955  42.075  22.049  0.00  0.00    +0.000 C 
ENDBRANCH  33  34
ENDBRANCH  32  33
ENDBRANCH  31  32
ENDBRANCH  28  31
ENDBRANCH  24  25
ENDBRANCH  21  23
ENDBRANCH  20  21
ENDBRANCH   3  20
TORSDOF 12
ENDMDL
MODEL 4
REMARK VINA RESULT:    -5.897     21.912     25.234
REMARK INTER + INTRA:          -7.845
REMARK INTER:                  -9.053
REMARK INTRA:                   1.208
REMARK UNBOUND:                 1.156
REMARK  Name = 
REMARK  18 active torsions:
REMARK  status: ('A' for Active; 'I' for Inactive)
REMARK    1  A    between atoms: C_1  and  C_2
REMARK    2  A    between atoms: C_2  and  C_36
REMARK    3  A    between atoms: C_3  and  C_4
REMARK    4  A    between atoms: C_4  and  C_5
REMARK    5  A    between atoms: C_6  and  C_8
REMARK    6  A    between atoms: C_6  and  C_9
REMARK    7  A    between atoms: C_10  and  O_34
REMARK    8  A    between atoms: C_11  and  O_17
REMARK    9  A    between atoms: O_17  and  C_18
REMARK   10  A    between atoms: C_18  and  C_20
REMARK   11  A    between atoms: C_21  and  C_22
REMARK   12  A    between atoms: C_25  and  O_28
REMARK   13  A    between atoms: O_28  and  C_29
REMARK   14  A    between atoms: C_29  and  C_30
REMARK   15  A    between atoms: C_30  and  N_31
REMARK   16  A    between atoms: N_31  and  C_32
REMARK   17  A    between atoms: N_31  and  C_33
REMARK   18  A    between atoms: O_34  and  C_35
REMARK                            x       y       z     vdW  Elec       q    Type
REMARK                         _______ _______ _______ _____ _____    ______ ____
ROOT
ATOM      1  C   UNL     1       6.773  23.057   4.459  0.00  0.00    +0.000 C 
ATOM      2  C   UNL     1       5.406  23.574   4.821  0.00  0.00    +0.000 C 
ATOM      3  C   UNL     1       6.156  24.922   4.576  0.00  0.00    +0.000 C 
ATOM      4  C   UNL     1       6.887  25.545   5.833  0.00  0.00    +0.000 C 
ATOM      5  C   UNL     1       8.012  24.699   6.322  0.00  0.00    +0.000 C 
ATOM      6  C   UNL     1       8.416  24.013   5.127  0.00  0.00    +0.000 C 
ATOM      7  C   UNL     1       9.923  24.701   4.384  0.00  0.00    +0.000 C 
ATOM      8  O   UNL     1       9.773  23.454   4.925  0.00  0.00    +0.000 OA
ENDROOT
BRANCH   1  10
ATOM      9  C   UNL     1       6.501  21.135   2.567  0.00  0.00    +0.000 C 
ATOM     10  C   UNL     1       6.382  22.603   2.878  0.00  0.00    +0.000 C 
ATOM     11  O   UNL     1       7.551  21.970   2.190  0.00  0.00    +0.000 OA
ATOM     12  C   UNL     1       5.546  23.706   1.872  0.00  0.00    +0.000 C 
BRANCH   9  13
ATOM     13  C   UNL     1       5.743  20.603   1.438  0.00  0.00    +0.000 C 
BRANCH  13  16
ATOM     14  C   UNL     1       6.537  16.932   0.422  0.00  0.00    +0.000 C 
ATOM     15  C   UNL     1       5.763  18.107   0.947  0.00  0.00    +0.000 C 
ATOM     16  C   UNL     1       6.305  19.318   0.912  0.00  0.00    +0.000 C 
ATOM     17  C   UNL     1       4.400  17.915   1.491  0.00  0.00    +0.000 C 
ENDBRANCH  13  16
ENDBRANCH   9  13
ENDBRANCH   1  10
BRANCH   2  18
ATOM     18  O   UNL     1       4.288  23.151   4.024  0.00  0.00    +0.000 OA
ATOM     19  C   UNL     1       3.138  22.828   4.770  0.00  0.00    +0.000 C 
ENDBRANCH   2  18
BRANCH   3  20
ATOM     20  O   UNL     1       7.526  24.548   3.433  0.00  0.00    +0.000 OA
BRANCH  20  21
ATOM     21  C   UNL     1       8.248  25.513   2.073  0.00  0.00    +0.000 C 
ATOM     22  O   UNL     1       8.715  24.901   1.163  0.00  0.00    +0.000 OA
BRANCH  21  23
ATOM     23  C   UNL     1       8.203  27.482   2.167  0.00  0.00    +0.000 C 
ATOM     24  C   UNL     1       8.668  28.463   3.100  0.00  0.00    +0.000 C 
BRANCH  24  25
ATOM     25  C   UNL     1       8.090  29.058   4.428  0.00  0.00    +0.000 A 
ATOM     26  C   UNL     1       8.777  29.853   5.383  0.00  0.00    +0.000 A 
ATOM     27  C   UNL     1       8.213  30.207   6.626  0.00  0.00    +0.000 A 
ATOM     28  C   UNL     1       6.961  29.679   6.939  0.00  0.00    +0.000 A 
ATOM     29  C   UNL     1       6.130  29.236   5.892  0.00  0.00    +0.000 A 
ATOM     30  C   UNL     1       6.695  28.947   4.638  0.00  0.00    +0.000 A 
BRANCH  28  31
ATOM     31  O   UNL     1       6.694  29.050   8.156  0.00  0.00    +0.000 OA
BRANCH  31  32
ATOM     32  C   UNL     1       5.699  27.991   8.219  0.00  0.00    +0.000 C 
BRANCH  32  33
ATOM     33  C   UNL     1       5.356  27.223   9.574  0.00  0.00    +0.000 C 
BRANCH  33  34
ATOM     34  N   UNL     1       5.661  25.796   9.587  0.00  0.00    +0.000 NA
ATOM     35  C   UNL     1       5.638  25.057  10.828  0.00  0.00    +0.000 C 
ATOM     36  C   UNL     1       4.664  25.109   8.789  0.00  0.00    +0.000 C 
ENDBRANCH  33  34
ENDBRANCH  32  33
ENDBRANCH  31  32
ENDBRANCH  28  31
ENDBRANCH  24  25
ENDBRANCH  21  23
ENDBRANCH  20  21
ENDBRANCH   3  20
TORSDOF 12
ENDMDL
MODEL 5
REMARK VINA RESULT:    -5.879      1.927      5.841
REMARK INTER + INTRA:          -7.816
REMARK INTER:                  -9.064
REMARK INTRA:                   1.247
REMARK UNBOUND:                 1.156
REMARK  Name = 
REMARK  18 active torsions:
REMARK  status: ('A' for Active; 'I' for Inactive)
REMARK    1  A    between atoms: C_1  and  C_2
REMARK    2  A    between atoms: C_2  and  C_36
REMARK    3  A    between atoms: C_3  and  C_4
REMARK    4  A    between atoms: C_4  and  C_5
REMARK    5  A    between atoms: C_6  and  C_8
REMARK    6  A    between atoms: C_6  and  C_9
REMARK    7  A    between atoms: C_10  and  O_34
REMARK    8  A    between atoms: C_11  and  O_17
REMARK    9  A    between atoms: O_17  and  C_18
REMARK   10  A    between atoms: C_18  and  C_20
REMARK   11  A    between atoms: C_21  and  C_22
REMARK   12  A    between atoms: C_25  and  O_28
REMARK   13  A    between atoms: O_28  and  C_29
REMARK   14  A    between atoms: C_29  and  C_30
REMARK   15  A    between atoms: C_30  and  N_31
REMARK   16  A    between atoms: N_31  and  C_32
REMARK   17  A    between atoms: N_31  and  C_33
REMARK   18  A    between atoms: O_34  and  C_35
REMARK                            x       y       z     vdW  Elec       q    Type
REMARK                         _______ _______ _______ _____ _____    ______ ____
ROOT
ATOM      1  C   UNL     1       3.903   6.843  20.964  0.00  0.00    +0.000 C 
ATOM      2  C   UNL     1       3.624   7.547  22.265  0.00  0.00    +0.000 C 
ATOM      3  C   UNL     1       5.109   7.120  22.495  0.00  0.00    +0.000 C 
ATOM      4  C   UNL     1       5.325   5.693  23.141  0.00  0.00    +0.000 C 
ATOM      5  C   UNL     1       4.862   4.584  22.259  0.00  0.00    +0.000 C 
ATOM      6  C   UNL     1       5.007   5.158  20.951  0.00  0.00    +0.000 C 
ATOM      7  C   UNL     1       6.481   4.566  20.071  0.00  0.00    +0.000 C 
ATOM      8  O   UNL     1       5.177   4.352  19.720  0.00  0.00    +0.000 OA
ENDROOT
BRANCH   1  10
ATOM      9  C   UNL     1       3.185   8.385  18.852  0.00  0.00    +0.000 C 
ATOM     10  C   UNL     1       4.100   8.245  20.039  0.00  0.00    +0.000 C 
ATOM     11  O   UNL     1       4.478   7.917  18.629  0.00  0.00    +0.000 OA
ATOM     12  C   UNL     1       5.008   9.548  20.676  0.00  0.00    +0.000 C 
BRANCH   9  13
ATOM     13  C   UNL     1       2.945   9.721  18.315  0.00  0.00    +0.000 C 
BRANCH  13  16
ATOM     14  C   UNL     1      -0.838  10.052  17.474  0.00  0.00    +0.000 C 
ATOM     15  C   UNL     1       0.416   9.996  18.297  0.00  0.00    +0.000 C 
ATOM     16  C   UNL     1       1.591   9.865  17.692  0.00  0.00    +0.000 C 
ATOM     17  C   UNL     1       0.343  10.094  19.771  0.00  0.00    +0.000 C 
ENDBRANCH  13  16
ENDBRANCH   9  13
ENDBRANCH   1  10
BRANCH   2  18
ATOM     18  O   UNL     1       3.210   8.921  22.218  0.00  0.00    +0.000 OA
ATOM     19  C   UNL     1       2.267   9.274  23.203  0.00  0.00    +0.000 C 
ENDBRANCH   2  18
BRANCH   3  20
ATOM     20  O   UNL     1       5.857   6.952  20.840  0.00  0.00    +0.000 OA
BRANCH  20  21
ATOM     21  C   UNL     1       7.520   7.358  20.231  0.00  0.00    +0.000 C 
ATOM     22  O   UNL     1       7.590   7.925  19.185  0.00  0.00    +0.000 OA
BRANCH  21  23
ATOM     23  C   UNL     1       9.085   6.865  21.322  0.00  0.00    +0.000 C 
ATOM     24  C   UNL     1       9.282   6.155  22.551  0.00  0.00    +0.000 C 
BRANCH  24  25
ATOM     25  C   UNL     1       9.200   6.558  24.061  0.00  0.00    +0.000 A 
ATOM     26  C   UNL     1       8.203   6.177  24.998  0.00  0.00    +0.000 A 
ATOM     27  C   UNL     1       8.131   6.722  26.296  0.00  0.00    +0.000 A 
ATOM     28  C   UNL     1       9.038   7.729  26.624  0.00  0.00    +0.000 A 
ATOM     29  C   UNL     1      10.231   7.835  25.885  0.00  0.00    +0.000 A 
ATOM     30  C   UNL     1      10.313   7.232  24.618  0.00  0.00    +0.000 A 
BRANCH  28  31
ATOM     31  O   UNL     1       8.644   8.935  27.206  0.00  0.00    +0.000 OA
BRANCH  31  32
ATOM     32  C   UNL     1       7.506   9.662  26.664  0.00  0.00    +0.000 C 
BRANCH  32  33
ATOM     33  C   UNL     1       6.127   9.797  27.454  0.00  0.00    +0.000 C 
BRANCH  33  34
ATOM     34  N   UNL     1       4.925   9.834  26.626  0.00  0.00    +0.000 NA
ATOM     35  C   UNL     1       4.844  10.733  25.499  0.00  0.00    +0.000 C 
ATOM     36  C   UNL     1       4.756   8.533  26.007  0.00  0.00    +0.000 C 
ENDBRANCH  33  34
ENDBRANCH  32  33
ENDBRANCH  31  32
ENDBRANCH  28  31
ENDBRANCH  24  25
ENDBRANCH  21  23
ENDBRANCH  20  21
ENDBRANCH   3  20
TORSDOF 12
ENDMDL
MODEL 6
REMARK VINA RESULT:    -5.863      2.450      5.262
REMARK INTER + INTRA:          -7.792
REMARK INTER:                  -8.496
REMARK INTRA:                   0.704
REMARK UNBOUND:                 1.156
REMARK  Name = 
REMARK  18 active torsions:
REMARK  status: ('A' for Active; 'I' for Inactive)
REMARK    1  A    between atoms: C_1  and  C_2
REMARK    2  A    between atoms: C_2  and  C_36
REMARK    3  A    between atoms: C_3  and  C_4
REMARK    4  A    between atoms: C_4  and  C_5
REMARK    5  A    between atoms: C_6  and  C_8
REMARK    6  A    between atoms: C_6  and  C_9
REMARK    7  A    between atoms: C_10  and  O_34
REMARK    8  A    between atoms: C_11  and  O_17
REMARK    9  A    between atoms: O_17  and  C_18
REMARK   10  A    between atoms: C_18  and  C_20
REMARK   11  A    between atoms: C_21  and  C_22
REMARK   12  A    between atoms: C_25  and  O_28
REMARK   13  A    between atoms: O_28  and  C_29
REMARK   14  A    between atoms: C_29  and  C_30
REMARK   15  A    between atoms: C_30  and  N_31
REMARK   16  A    between atoms: N_31  and  C_32
REMARK   17  A    between atoms: N_31  and  C_33
REMARK   18  A    between atoms: O_34  and  C_35
REMARK                            x       y       z     vdW  Elec       q    Type
REMARK                         _______ _______ _______ _____ _____    ______ ____
ROOT
ATOM      1  C   UNL     1       5.784   8.405  20.766  0.00  0.00    +0.000 C 
ATOM      2  C   UNL     1       6.052   8.627  22.231  0.00  0.00    +0.000 C 
ATOM      3  C   UNL     1       4.594   8.072  22.298  0.00  0.00    +0.000 C 
ATOM      4  C   UNL     1       3.439   9.147  22.195  0.00  0.00    +0.000 C 
ATOM      5  C   UNL     1       3.404   9.830  20.869  0.00  0.00    +0.000 C 
ATOM      6  C   UNL     1       3.969   8.834  20.003  0.00  0.00    +0.000 C 
ATOM      7  C   UNL     1       2.723   7.955  19.017  0.00  0.00    +0.000 C 
ATOM      8  O   UNL     1       3.709   8.777  18.546  0.00  0.00    +0.000 OA
ENDROOT
BRANCH   1  10
ATOM      9  C   UNL     1       7.839   7.012  19.677  0.00  0.00    +0.000 C 
ATOM     10  C   UNL     1       6.678   6.976  20.633  0.00  0.00    +0.000 C 
ATOM     11  O   UNL     1       6.647   6.444  19.235  0.00  0.00    +0.000 OA
ATOM     12  C   UNL     1       6.473   5.748  21.807  0.00  0.00    +0.000 C 
BRANCH   9  13
ATOM     13  C   UNL     1       8.917   6.044  19.859  0.00  0.00    +0.000 C 
BRANCH  13  16
ATOM     14  C   UNL     1      12.092   7.491  21.579  0.00  0.00    +0.000 C 
ATOM     15  C   UNL     1      10.812   6.725  21.414  0.00  0.00    +0.000 C 
ATOM     16  C   UNL     1      10.220   6.685  20.226  0.00  0.00    +0.000 C 
ATOM     17  C   UNL     1      10.217   6.014  22.568  0.00  0.00    +0.000 C 
ENDBRANCH  13  16
ENDBRANCH   9  13
ENDBRANCH   1  10
BRANCH   2  18
ATOM     18  O   UNL     1       7.170   7.949  22.826  0.00  0.00    +0.000 OA
ATOM     19  C   UNL     1       7.849   8.703  23.803  0.00  0.00    +0.000 C 
ENDBRANCH   2  18
BRANCH   3  20
ATOM     20  O   UNL     1       4.361   7.057  20.802  0.00  0.00    +0.000 OA
BRANCH  20  21
ATOM     21  C   UNL     1       3.435   5.516  20.532  0.00  0.00    +0.000 C 
ATOM     22  O   UNL     1       3.966   4.673  19.877  0.00  0.00    +0.000 OA
BRANCH  21  23
ATOM     23  C   UNL     1       1.646   5.322  21.337  0.00  0.00    +0.000 C 
ATOM     24  C   UNL     1       0.627   6.228  21.773  0.00  0.00    +0.000 C 
BRANCH  24  25
ATOM     25  C   UNL     1       0.391   7.044  23.088  0.00  0.00    +0.000 A 
ATOM     26  C   UNL     1      -0.731   7.857  23.404  0.00  0.00    +0.000 A 
ATOM     27  C   UNL     1      -0.775   8.679  24.548  0.00  0.00    +0.000 A 
ATOM     28  C   UNL     1       0.368   8.739  25.344  0.00  0.00    +0.000 A 
ATOM     29  C   UNL     1       1.300   7.686  25.274  0.00  0.00    +0.000 A 
ATOM     30  C   UNL     1       1.294   6.834  24.157  0.00  0.00    +0.000 A 
BRANCH  28  31
ATOM     31  O   UNL     1       0.933   9.946  25.759  0.00  0.00    +0.000 OA
BRANCH  31  32
ATOM     32  C   UNL     1       2.358  10.175  25.583  0.00  0.00    +0.000 C 
BRANCH  32  33
ATOM     33  C   UNL     1       3.337  10.439  26.813  0.00  0.00    +0.000 C 
BRANCH  33  34
ATOM     34  N   UNL     1       4.697   9.932  26.660  0.00  0.00    +0.000 NA
ATOM     35  C   UNL     1       4.928   8.627  26.084  0.00  0.00    +0.000 C 
ATOM     36  C   UNL     1       5.413  10.810  25.754  0.00  0.00    +0.000 C 
ENDBRANCH  33  34
ENDBRANCH  32  33
ENDBRANCH  31  32
ENDBRANCH  28  31
ENDBRANCH  24  25
ENDBRANCH  21  23
ENDBRANCH  20  21
ENDBRANCH   3  20
TORSDOF 12
ENDMDL
MODEL 7
REMARK VINA RESULT:    -5.773      1.588      2.350
REMARK INTER + INTRA:          -7.654
REMARK INTER:                  -9.269
REMARK INTRA:                   1.615
REMARK UNBOUND:                 1.156
REMARK  Name = 
REMARK  18 active torsions:
REMARK  status: ('A' for Active; 'I' for Inactive)
REMARK    1  A    between atoms: C_1  and  C_2
REMARK    2  A    between atoms: C_2  and  C_36
REMARK    3  A    between atoms: C_3  and  C_4
REMARK    4  A    between atoms: C_4  and  C_5
REMARK    5  A    between atoms: C_6  and  C_8
REMARK    6  A    between atoms: C_6  and  C_9
REMARK    7  A    between atoms: C_10  and  O_34
REMARK    8  A    between atoms: C_11  and  O_17
REMARK    9  A    between atoms: O_17  and  C_18
REMARK   10  A    between atoms: C_18  and  C_20
REMARK   11  A    between atoms: C_21  and  C_22
REMARK   12  A    between atoms: C_25  and  O_28
REMARK   13  A    between atoms: O_28  and  C_29
REMARK   14  A    between atoms: C_29  and  C_30
REMARK   15  A    between atoms: C_30  and  N_31
REMARK   16  A    between atoms: N_31  and  C_32
REMARK   17  A    between atoms: N_31  and  C_33
REMARK   18  A    between atoms: O_34  and  C_35
REMARK                            x       y       z     vdW  Elec       q    Type
REMARK                         _______ _______ _______ _____ _____    ______ ____
ROOT
ATOM      1  C   UNL     1       4.261   7.287  19.814  0.00  0.00    +0.000 C 
ATOM      2  C   UNL     1       5.651   7.778  20.120  0.00  0.00    +0.000 C 
ATOM      3  C   UNL     1       4.810   8.776  20.979  0.00  0.00    +0.000 C 
ATOM      4  C   UNL     1       4.345  10.097  20.245  0.00  0.00    +0.000 C 
ATOM      5  C   UNL     1       3.389   9.832  19.131  0.00  0.00    +0.000 C 
ATOM      6  C   UNL     1       2.764   8.610  19.555  0.00  0.00    +0.000 C 
ATOM      7  C   UNL     1       1.104   8.861  20.246  0.00  0.00    +0.000 C 
ATOM      8  O   UNL     1       1.420   8.181  19.103  0.00  0.00    +0.000 OA
ENDROOT
BRANCH   1  10
ATOM      9  C   UNL     1       4.242   4.597  20.154  0.00  0.00    +0.000 C 
ATOM     10  C   UNL     1       4.317   5.938  20.833  0.00  0.00    +0.000 C 
ATOM     11  O   UNL     1       3.074   5.114  20.711  0.00  0.00    +0.000 OA
ATOM     12  C   UNL     1       4.817   6.135  22.457  0.00  0.00    +0.000 C 
BRANCH   9  13
ATOM     13  C   UNL     1       4.763   3.431  20.863  0.00  0.00    +0.000 C 
BRANCH  13  16
ATOM     14  C   UNL     1       2.097   0.659  21.444  0.00  0.00    +0.000 C 
ATOM     15  C   UNL     1       3.252   1.385  20.817  0.00  0.00    +0.000 C 
ATOM     16  C   UNL     1       3.682   2.519  21.357  0.00  0.00    +0.000 C 
ATOM     17  C   UNL     1       3.909   0.837  19.611  0.00  0.00    +0.000 C 
ENDBRANCH  13  16
ENDBRANCH   9  13
ENDBRANCH   1  10
BRANCH   2  18
ATOM     18  O   UNL     1       6.585   6.852  20.698  0.00  0.00    +0.000 OA
ATOM     19  C   UNL     1       7.930   7.263  20.615  0.00  0.00    +0.000 C 
ENDBRANCH   2  18
BRANCH   3  20
ATOM     20  O   UNL     1       3.241   7.929  21.360  0.00  0.00    +0.000 OA
BRANCH  20  21
ATOM     21  C   UNL     1       2.266   7.847  22.892  0.00  0.00    +0.000 C 
ATOM     22  O   UNL     1       1.357   7.076  22.915  0.00  0.00    +0.000 OA
BRANCH  21  23
ATOM     23  C   UNL     1       2.769   9.001  24.409  0.00  0.00    +0.000 C 
ATOM     24  C   UNL     1       3.827   9.930  24.669  0.00  0.00    +0.000 C 
BRANCH  24  25
ATOM     25  C   UNL     1       5.305   9.781  25.164  0.00  0.00    +0.000 A 
ATOM     26  C   UNL     1       6.387   9.180  24.467  0.00  0.00    +0.000 A 
ATOM     27  C   UNL     1       7.643   8.952  25.065  0.00  0.00    +0.000 A 
ATOM     28  C   UNL     1       7.781   9.268  26.415  0.00  0.00    +0.000 A 
ATOM     29  C   UNL     1       6.888  10.191  26.992  0.00  0.00    +0.000 A 
ATOM     30  C   UNL     1       5.665  10.458  26.354  0.00  0.00    +0.000 A 
BRANCH  28  31
ATOM     31  O   UNL     1       8.326   8.379  27.343  0.00  0.00    +0.000 OA
BRANCH  31  32
ATOM     32  C   UNL     1       9.463   7.551  26.970  0.00  0.00    +0.000 C 
BRANCH  32  33
ATOM     33  C   UNL     1      10.954   8.115  26.942  0.00  0.00    +0.000 C 
BRANCH  33  34
ATOM     34  N   UNL     1      11.699   7.872  25.710  0.00  0.00    +0.000 NA
ATOM     35  C   UNL     1      12.786   6.921  25.690  0.00  0.00    +0.000 C 
ATOM     36  C   UNL     1      10.784   7.330  24.723  0.00  0.00    +0.000 C 
ENDBRANCH  33  34
ENDBRANCH  32  33
ENDBRANCH  31  32
ENDBRANCH  28  31
ENDBRANCH  24  25
ENDBRANCH  21  23
ENDBRANCH  20  21
ENDBRANCH   3  20
TORSDOF 12
ENDMDL
MODEL 8
REMARK VINA RESULT:    -5.343      2.594      4.146
REMARK INTER + INTRA:          -6.998
REMARK INTER:                  -8.117
REMARK INTRA:                   1.118
REMARK UNBOUND:                 1.156
REMARK  Name = 
REMARK  18 active torsions:
REMARK  status: ('A' for Active; 'I' for Inactive)
REMARK    1  A    between atoms: C_1  and  C_2
REMARK    2  A    between atoms: C_2  and  C_36
REMARK    3  A    between atoms: C_3  and  C_4
REMARK    4  A    between atoms: C_4  and  C_5
REMARK    5  A    between atoms: C_6  and  C_8
REMARK    6  A    between atoms: C_6  and  C_9
REMARK    7  A    between atoms: C_10  and  O_34
REMARK    8  A    between atoms: C_11  and  O_17
REMARK    9  A    between atoms: O_17  and  C_18
REMARK   10  A    between atoms: C_18  and  C_20
REMARK   11  A    between atoms: C_21  and  C_22
REMARK   12  A    between atoms: C_25  and  O_28
REMARK   13  A    between atoms: O_28  and  C_29
REMARK   14  A    between atoms: C_29  and  C_30
REMARK   15  A    between atoms: C_30  and  N_31
REMARK   16  A    between atoms: N_31  and  C_32
REMARK   17  A    between atoms: N_31  and  C_33
REMARK   18  A    between atoms: O_34  and  C_35
REMARK                            x       y       z     vdW  Elec       q    Type
REMARK                         _______ _______ _______ _____ _____    ______ ____
ROOT
ATOM      1  C   UNL     1       4.882   6.984  22.361  0.00  0.00    +0.000 C 
ATOM      2  C   UNL     1       5.107   7.663  21.037  0.00  0.00    +0.000 C 
ATOM      3  C   UNL     1       4.775   8.901  21.929  0.00  0.00    +0.000 C 
ATOM      4  C   UNL     1       3.245   9.286  22.034  0.00  0.00    +0.000 C 
ATOM      5  C   UNL     1       2.433   8.239  22.717  0.00  0.00    +0.000 C 
ATOM      6  C   UNL     1       3.402   7.616  23.574  0.00  0.00    +0.000 C 
ATOM      7  C   UNL     1       3.263   8.138  25.308  0.00  0.00    +0.000 C 
ATOM      8  O   UNL     1       3.048   6.883  24.811  0.00  0.00    +0.000 OA
ENDROOT
BRANCH   1  10
ATOM      9  C   UNL     1       7.018   5.331  22.597  0.00  0.00    +0.000 C 
ATOM     10  C   UNL     1       6.517   6.744  22.722  0.00  0.00    +0.000 C 
ATOM     11  O   UNL     1       6.686   5.796  23.867  0.00  0.00    +0.000 OA
ATOM     12  C   UNL     1       7.558   8.098  22.830  0.00  0.00    +0.000 C 
BRANCH   9  13
ATOM     13  C   UNL     1       8.450   5.117  22.406  0.00  0.00    +0.000 C 
BRANCH  13  16
ATOM     14  C   UNL     1       9.901   5.612  18.831  0.00  0.00    +0.000 C 
ATOM     15  C   UNL     1       9.711   5.807  20.308  0.00  0.00    +0.000 C 
ATOM     16  C   UNL     1       8.841   5.047  20.962  0.00  0.00    +0.000 C 
ATOM     17  C   UNL     1      10.493   6.835  21.029  0.00  0.00    +0.000 C 
ENDBRANCH  13  16
ENDBRANCH   9  13
ENDBRANCH   1  10
BRANCH   2  18
ATOM     18  O   UNL     1       6.380   7.489  20.393  0.00  0.00    +0.000 OA
ATOM     19  C   UNL     1       6.493   8.147  19.153  0.00  0.00    +0.000 C 
ENDBRANCH   2  18
BRANCH   3  20
ATOM     20  O   UNL     1       5.212   8.436  23.637  0.00  0.00    +0.000 OA
BRANCH  20  21
ATOM     21  C   UNL     1       5.872   9.420  25.015  0.00  0.00    +0.000 C 
ATOM     22  O   UNL     1       5.674  10.595  24.985  0.00  0.00    +0.000 OA
BRANCH  21  23
ATOM     23  C   UNL     1       6.845   8.505  26.464  0.00  0.00    +0.000 C 
ATOM     24  C   UNL     1       8.176   8.570  26.990  0.00  0.00    +0.000 C 
BRANCH  24  25
ATOM     25  C   UNL     1       9.539   7.920  26.577  0.00  0.00    +0.000 A 
ATOM     26  C   UNL     1      10.825   8.218  27.100  0.00  0.00    +0.000 A 
ATOM     27  C   UNL     1      12.011   7.692  26.548  0.00  0.00    +0.000 A 
ATOM     28  C   UNL     1      11.896   6.912  25.398  0.00  0.00    +0.000 A 
ATOM     29  C   UNL     1      10.660   6.304  25.111  0.00  0.00    +0.000 A 
ATOM     30  C   UNL     1       9.491   6.798  25.716  0.00  0.00    +0.000 A 
BRANCH  28  31
ATOM     31  O   UNL     1      12.680   7.127  24.263  0.00  0.00    +0.000 OA
BRANCH  31  32
ATOM     32  C   UNL     1      13.142   5.993  23.478  0.00  0.00    +0.000 C 
BRANCH  32  33
ATOM     33  C   UNL     1      14.482   5.203  23.831  0.00  0.00    +0.000 C 
BRANCH  33  34
ATOM     34  N   UNL     1      15.360   5.849  24.801  0.00  0.00    +0.000 NA
ATOM     35  C   UNL     1      15.319   5.463  26.192  0.00  0.00    +0.000 C 
ATOM     36  C   UNL     1      16.734   5.565  24.432  0.00  0.00    +0.000 C 
ENDBRANCH  33  34
ENDBRANCH  32  33
ENDBRANCH  31  32
ENDBRANCH  28  31
ENDBRANCH  24  25
ENDBRANCH  21  23
ENDBRANCH  20  21
ENDBRANCH   3  20
TORSDOF 12
ENDMDL
MODEL 9
REMARK VINA RESULT:    -5.105      2.515      6.271
REMARK INTER + INTRA:          -6.634
REMARK INTER:                  -8.525
REMARK INTRA:                   1.890
REMARK UNBOUND:                 1.156
REMARK  Name = 
REMARK  18 active torsions:
REMARK  status: ('A' for Active; 'I' for Inactive)
REMARK    1  A    between atoms: C_1  and  C_2
REMARK    2  A    between atoms: C_2  and  C_36
REMARK    3  A    between atoms: C_3  and  C_4
REMARK    4  A    between atoms: C_4  and  C_5
REMARK    5  A    between atoms: C_6  and  C_8
REMARK    6  A    between atoms: C_6  and  C_9
REMARK    7  A    between atoms: C_10  and  O_34
REMARK    8  A    between atoms: C_11  and  O_17
REMARK    9  A    between atoms: O_17  and  C_18
REMARK   10  A    between atoms: C_18  and  C_20
REMARK   11  A    between atoms: C_21  and  C_22
REMARK   12  A    between atoms: C_25  and  O_28
REMARK   13  A    between atoms: O_28  and  C_29
REMARK   14  A    between atoms: C_29  and  C_30
REMARK   15  A    between atoms: C_30  and  N_31
REMARK   16  A    between atoms: N_31  and  C_32
REMARK   17  A    between atoms: N_31  and  C_33
REMARK   18  A    between atoms: O_34  and  C_35
REMARK                            x       y       z     vdW  Elec       q    Type
REMARK                         _______ _______ _______ _____ _____    ______ ____
ROOT
ATOM      1  C   UNL     1       4.216   5.828  21.647  0.00  0.00    +0.000 C 
ATOM      2  C   UNL     1       4.477   6.362  23.030  0.00  0.00    +0.000 C 
ATOM      3  C   UNL     1       5.910   6.471  22.417  0.00  0.00    +0.000 C 
ATOM      4  C   UNL     1       6.828   5.193  22.576  0.00  0.00    +0.000 C 
ATOM      5  C   UNL     1       6.308   4.013  21.829  0.00  0.00    +0.000 C 
ATOM      6  C   UNL     1       5.574   4.631  20.761  0.00  0.00    +0.000 C 
ATOM      7  C   UNL     1       6.461   4.606  19.177  0.00  0.00    +0.000 C 
ATOM      8  O   UNL     1       5.292   3.962  19.470  0.00  0.00    +0.000 OA
ENDROOT
BRANCH   1  10
ATOM      9  C   UNL     1       2.080   7.079  20.542  0.00  0.00    +0.000 C 
ATOM     10  C   UNL     1       3.490   7.231  21.045  0.00  0.00    +0.000 C 
ATOM     11  O   UNL     1       3.112   7.073  19.606  0.00  0.00    +0.000 OA
ATOM     12  C   UNL     1       4.205   8.751  21.372  0.00  0.00    +0.000 C 
BRANCH   9  13
ATOM     13  C   UNL     1       1.236   8.269  20.475  0.00  0.00    +0.000 C 
BRANCH  13  16
ATOM     14  C   UNL     1      -2.576   7.874  19.805  0.00  0.00    +0.000 C 
ATOM     15  C   UNL     1      -1.137   8.227  19.560  0.00  0.00    +0.000 C 
ATOM     16  C   UNL     1      -0.227   7.946  20.484  0.00  0.00    +0.000 C 
ATOM     17  C   UNL     1      -0.737   8.876  18.292  0.00  0.00    +0.000 C 
ENDBRANCH  13  16
ENDBRANCH   9  13
ENDBRANCH   1  10
BRANCH   2  18
ATOM     18  O   UNL     1       3.730   7.508  23.466  0.00  0.00    +0.000 OA
ATOM     19  C   UNL     1       3.533   7.572  24.860  0.00  0.00    +0.000 C 
ENDBRANCH   2  18
BRANCH   3  20
ATOM     20  O   UNL     1       5.687   6.610  20.613  0.00  0.00    +0.000 OA
BRANCH  20  21
ATOM     21  C   UNL     1       6.645   7.504  19.354  0.00  0.00    +0.000 C 
ATOM     22  O   UNL     1       6.038   8.221  18.620  0.00  0.00    +0.000 OA
BRANCH  21  23
ATOM     23  C   UNL     1       8.599   7.259  19.284  0.00  0.00    +0.000 C 
ATOM     24  C   UNL     1       9.565   6.576  20.093  0.00  0.00    +0.000 C 
BRANCH  24  25
ATOM     25  C   UNL     1      10.333   6.941  21.407  0.00  0.00    +0.000 A 
ATOM     26  C   UNL     1      11.731   6.843  21.639  0.00  0.00    +0.000 A 
ATOM     27  C   UNL     1      12.307   7.046  22.910  0.00  0.00    +0.000 A 
ATOM     28  C   UNL     1      11.443   7.274  23.980  0.00  0.00    +0.000 A 
ATOM     29  C   UNL     1      10.145   7.750  23.715  0.00  0.00    +0.000 A 
ATOM     30  C   UNL     1       9.605   7.599  22.426  0.00  0.00    +0.000 A 
BRANCH  28  31
ATOM     31  O   UNL     1      11.536   6.574  25.184  0.00  0.00    +0.000 OA
BRANCH  31  32
ATOM     32  C   UNL     1      12.795   6.552  25.912  0.00  0.00    +0.000 C 
BRANCH  32  33
ATOM     33  C   UNL     1      13.105   5.475  27.046  0.00  0.00    +0.000 C 
BRANCH  33  34
ATOM     34  N   UNL     1      14.042   5.899  28.082  0.00  0.00    +0.000 NA
ATOM     35  C   UNL     1      13.600   6.756  29.157  0.00  0.00    +0.000 C 
ATOM     36  C   UNL     1      14.507   4.720  28.786  0.00  0.00    +0.000 C 
ENDBRANCH  33  34
ENDBRANCH  32  33
ENDBRANCH  31  32
ENDBRANCH  28  31
ENDBRANCH  24  25
ENDBRANCH  21  23
ENDBRANCH  20  21
ENDBRANCH   3  20
TORSDOF 12
ENDMDL
