MODEL 1
REMARK VINA RESULT:    -6.060      0.000      0.000
REMARK INTER + INTRA:          -8.053
REMARK INTER:                  -9.071
REMARK INTRA:                   1.018
REMARK UNBOUND:                 1.018
REMARK  Name = 
REMARK  16 active torsions:
REMARK  status: ('A' for Active; 'I' for Inactive)
REMARK    1  A    between atoms: C_1  and  C_2
REMARK    2  A    between atoms: C_2  and  C_33
REMARK    3  A    between atoms: C_3  and  C_4
REMARK    4  A    between atoms: C_4  and  C_5
REMARK    5  A    between atoms: C_6  and  C_8
REMARK    6  A    between atoms: C_6  and  C_9
REMARK    7  A    between atoms: C_10  and  O_31
REMARK    8  A    between atoms: C_11  and  O_17
REMARK    9  A    between atoms: O_17  and  C_18
REMARK   10  A    between atoms: C_18  and  C_20
REMARK   11  A    between atoms: C_21  and  C_22
REMARK   12  A    between atoms: C_23  and  C_24
REMARK   13  A    between atoms: C_25  and  C_26
REMARK   14  A    between atoms: C_27  and  C_28
REMARK   15  A    between atoms: C_28  and  O_30
REMARK   16  A    between atoms: O_31  and  C_32
REMARK                            x       y       z     vdW  Elec       q    Type
REMARK                         _______ _______ _______ _____ _____    ______ ____
ROOT
ATOM      1  C   UNL     1      11.337  40.575   1.412  0.00  0.00    +0.000 C 
ATOM      2  C   UNL     1      12.033  41.638   2.234  0.00  0.00    +0.000 C 
ATOM      3  C   UNL     1      11.188  40.935   3.368  0.00  0.00    +0.000 C 
ATOM      4  C   UNL     1       9.684  41.468   3.584  0.00  0.00    +0.000 C 
ATOM      5  C   UNL     1       8.811  41.241   2.380  0.00  0.00    +0.000 C 
ATOM      6  C   UNL     1       9.399  40.085   1.796  0.00  0.00    +0.000 C 
ATOM      7  C   UNL     1       8.483  38.587   2.145  0.00  0.00    +0.000 C 
ATOM      8  O   UNL     1       8.614  39.169   0.906  0.00  0.00    +0.000 OA
ENDROOT
BRANCH   1  10
ATOM      9  C   UNL     1      13.173  39.336  -0.113  0.00  0.00    +0.000 C 
ATOM     10  C   UNL     1      12.662  39.553   1.285  0.00  0.00    +0.000 C 
ATOM     11  O   UNL     1      12.323  38.371   0.417  0.00  0.00    +0.000 OA
ATOM     12  C   UNL     1      13.531  39.115   2.692  0.00  0.00    +0.000 C 
BRANCH   9  13
ATOM     13  C   UNL     1      14.547  38.877  -0.276  0.00  0.00    +0.000 C 
BRANCH  13  16
ATOM     14  C   UNL     1      17.327  41.311  -1.486  0.00  0.00    +0.000 C 
ATOM     15  C   UNL     1      16.396  40.134  -1.483  0.00  0.00    +0.000 C 
ATOM     16  C   UNL     1      15.513  39.999  -0.501  0.00  0.00    +0.000 C 
ATOM     17  C   UNL     1      16.456  39.136  -2.572  0.00  0.00    +0.000 C 
ENDBRANCH  13  16
ENDBRANCH   9  13
ENDBRANCH   1  10
BRANCH   2  18
ATOM     18  O   UNL     1      13.468  41.664   2.225  0.00  0.00    +0.000 OA
ATOM     19  C   UNL     1      14.030  42.784   1.584  0.00  0.00    +0.000 C 
ENDBRANCH   2  18
BRANCH   3  20
ATOM     20  O   UNL     1      10.910  39.237   2.771  0.00  0.00    +0.000 OA
BRANCH  20  21
ATOM     21  C   UNL     1      10.842  37.652   3.677  0.00  0.00    +0.000 C 
ATOM     22  O   UNL     1      10.296  37.667   4.736  0.00  0.00    +0.000 OA
BRANCH  21  23
ATOM     23  C   UNL     1      11.634  36.043   2.804  0.00  0.00    +0.000 C 
ATOM     24  C   UNL     1      12.979  35.525   2.667  0.00  0.00    +0.000 C 
BRANCH  24  25
ATOM     25  C   UNL     1      13.958  35.574   1.502  0.00  0.00    +0.000 C 
ATOM     26  C   UNL     1      15.315  35.820   1.538  0.00  0.00    +0.000 C 
BRANCH  26  27
ATOM     27  C   UNL     1      16.170  35.560   0.397  0.00  0.00    +0.000 C 
ATOM     28  C   UNL     1      15.759  35.379  -0.874  0.00  0.00    +0.000 C 
BRANCH  28  29
ATOM     29  C   UNL     1      16.715  35.490  -1.963  0.00  0.00    +0.000 C 
ATOM     30  C   UNL     1      17.025  34.495  -2.807  0.00  0.00    +0.000 C 
BRANCH  30  31
ATOM     31  C   UNL     1      17.987  34.636  -3.917  0.00  0.00    +0.000 C 
ATOM     32  O   UNL     1      19.085  35.151  -3.804  0.00  0.00    +0.000 OA
BRANCH  31  33
ATOM     33  O   UNL     1      17.544  34.147  -5.088  0.00  0.00    +0.000 OA
ATOM     34  H   UNL     1      16.581  34.333  -5.105  0.00  0.00    +0.000 HD
ENDBRANCH  31  33
ENDBRANCH  30  31
ENDBRANCH  28  29
ENDBRANCH  26  27
ENDBRANCH  24  25
ENDBRANCH  21  23
ENDBRANCH  20  21
ENDBRANCH   3  20
TORSDOF 12
ENDMDL
MODEL 2
REMARK VINA RESULT:    -6.036     24.261     27.139
REMARK INTER + INTRA:          -8.018
REMARK INTER:                  -8.670
REMARK INTRA:                   0.652
REMARK UNBOUND:                 1.018
REMARK  Name = 
REMARK  16 active torsions:
REMARK  status: ('A' for Active; 'I' for Inactive)
REMARK    1  A    between atoms: C_1  and  C_2
REMARK    2  A    between atoms: C_2  and  C_33
REMARK    3  A    between atoms: C_3  and  C_4
REMARK    4  A    between atoms: C_4  and  C_5
REMARK    5  A    between atoms: C_6  and  C_8
REMARK    6  A    between atoms: C_6  and  C_9
REMARK    7  A    between atoms: C_10  and  O_31
REMARK    8  A    between atoms: C_11  and  O_17
REMARK    9  A    between atoms: O_17  and  C_18
REMARK   10  A    between atoms: C_18  and  C_20
REMARK   11  A    between atoms: C_21  and  C_22
REMARK   12  A    between atoms: C_23  and  C_24
REMARK   13  A    between atoms: C_25  and  C_26
REMARK   14  A    between atoms: C_27  and  C_28
REMARK   15  A    between atoms: C_28  and  O_30
REMARK   16  A    between atoms: O_31  and  C_32
REMARK                            x       y       z     vdW  Elec       q    Type
REMARK                         _______ _______ _______ _____ _____    ______ ____
ROOT
ATOM      1  C   UNL     1      22.749  48.454  21.939  0.00  0.00    +0.000 C 
ATOM      2  C   UNL     1      22.701  48.178  20.452  0.00  0.00    +0.000 C 
ATOM      3  C   UNL     1      24.230  48.541  20.606  0.00  0.00    +0.000 C 
ATOM      4  C   UNL     1      24.615  50.102  20.506  0.00  0.00    +0.000 C 
ATOM      5  C   UNL     1      24.003  50.920  21.611  0.00  0.00    +0.000 C 
ATOM      6  C   UNL     1      23.897  49.971  22.664  0.00  0.00    +0.000 C 
ATOM      7  C   UNL     1      25.184  50.152  23.896  0.00  0.00    +0.000 C 
ATOM      8  O   UNL     1      23.846  50.395  24.101  0.00  0.00    +0.000 OA
ENDROOT
BRANCH   1  10
ATOM      9  C   UNL     1      21.438  46.378  23.035  0.00  0.00    +0.000 C 
ATOM     10  C   UNL     1      22.728  46.847  22.420  0.00  0.00    +0.000 C 
ATOM     11  O   UNL     1      22.463  46.751  23.898  0.00  0.00    +0.000 OA
ATOM     12  C   UNL     1      23.968  45.790  21.899  0.00  0.00    +0.000 C 
BRANCH   9  13
ATOM     13  C   UNL     1      21.161  44.948  23.042  0.00  0.00    +0.000 C 
BRANCH  13  16
ATOM     14  C   UNL     1      18.547  43.198  25.328  0.00  0.00    +0.000 C 
ATOM     15  C   UNL     1      19.592  43.366  24.263  0.00  0.00    +0.000 C 
ATOM     16  C   UNL     1      20.155  44.554  24.080  0.00  0.00    +0.000 C 
ATOM     17  C   UNL     1      19.996  42.214  23.430  0.00  0.00    +0.000 C 
ENDBRANCH  13  16
ENDBRANCH   9  13
ENDBRANCH   1  10
BRANCH   2  18
ATOM     18  O   UNL     1      22.239  46.888  20.022  0.00  0.00    +0.000 OA
ATOM     19  C   UNL     1      21.904  46.811  18.657  0.00  0.00    +0.000 C 
ENDBRANCH   2  18
BRANCH   3  20
ATOM     20  O   UNL     1      24.639  48.156  22.338  0.00  0.00    +0.000 OA
BRANCH  20  21
ATOM     21  C   UNL     1      26.199  47.578  23.093  0.00  0.00    +0.000 C 
ATOM     22  O   UNL     1      27.207  47.887  22.537  0.00  0.00    +0.000 OA
BRANCH  21  23
ATOM     23  C   UNL     1      26.085  46.533  24.788  0.00  0.00    +0.000 C 
ATOM     24  C   UNL     1      25.700  45.176  25.118  0.00  0.00    +0.000 C 
BRANCH  24  25
ATOM     25  C   UNL     1      24.408  44.613  25.693  0.00  0.00    +0.000 C 
ATOM     26  C   UNL     1      23.746  43.457  25.333  0.00  0.00    +0.000 C 
BRANCH  26  27
ATOM     27  C   UNL     1      22.688  42.896  26.149  0.00  0.00    +0.000 C 
ATOM     28  C   UNL     1      22.307  41.603  26.171  0.00  0.00    +0.000 C 
BRANCH  28  29
ATOM     29  C   UNL     1      21.501  41.108  27.275  0.00  0.00    +0.000 C 
ATOM     30  C   UNL     1      20.887  41.888  28.177  0.00  0.00    +0.000 C 
BRANCH  30  31
ATOM     31  C   UNL     1      20.060  41.363  29.280  0.00  0.00    +0.000 C 
ATOM     32  O   UNL     1      18.852  41.501  29.349  0.00  0.00    +0.000 OA
BRANCH  31  33
ATOM     33  O   UNL     1      20.760  40.716  30.227  0.00  0.00    +0.000 OA
ATOM     34  H   UNL     1      21.234  39.995  29.760  0.00  0.00    +0.000 HD
ENDBRANCH  31  33
ENDBRANCH  30  31
ENDBRANCH  28  29
ENDBRANCH  26  27
ENDBRANCH  24  25
ENDBRANCH  21  23
ENDBRANCH  20  21
ENDBRANCH   3  20
TORSDOF 12
ENDMDL
MODEL 3
REMARK VINA RESULT:    -5.644     21.704     25.200
REMARK INTER + INTRA:          -7.431
REMARK INTER:                  -8.869
REMARK INTRA:                   1.438
REMARK UNBOUND:                 1.018
REMARK  Name = 
REMARK  16 active torsions:
REMARK  status: ('A' for Active; 'I' for Inactive)
REMARK    1  A    between atoms: C_1  and  C_2
REMARK    2  A    between atoms: C_2  and  C_33
REMARK    3  A    between atoms: C_3  and  C_4
REMARK    4  A    between atoms: C_4  and  C_5
REMARK    5  A    between atoms: C_6  and  C_8
REMARK    6  A    between atoms: C_6  and  C_9
REMARK    7  A    between atoms: C_10  and  O_31
REMARK    8  A    between atoms: C_11  and  O_17
REMARK    9  A    between atoms: O_17  and  C_18
REMARK   10  A    between atoms: C_18  and  C_20
REMARK   11  A    between atoms: C_21  and  C_22
REMARK   12  A    between atoms: C_23  and  C_24
REMARK   13  A    between atoms: C_25  and  C_26
REMARK   14  A    between atoms: C_27  and  C_28
REMARK   15  A    between atoms: C_28  and  O_30
REMARK   16  A    between atoms: O_31  and  C_32
REMARK                            x       y       z     vdW  Elec       q    Type
REMARK                         _______ _______ _______ _____ _____    ______ ____
ROOT
ATOM      1  C   UNL     1      14.839  33.432  20.852  0.00  0.00    +0.000 C 
ATOM      2  C   UNL     1      13.609  34.276  20.594  0.00  0.00    +0.000 C 
ATOM      3  C   UNL     1      12.918  32.910  20.981  0.00  0.00    +0.000 C 
ATOM      4  C   UNL     1      12.689  31.853  19.787  0.00  0.00    +0.000 C 
ATOM      5  C   UNL     1      13.981  31.371  19.186  0.00  0.00    +0.000 C 
ATOM      6  C   UNL     1      14.881  31.479  20.281  0.00  0.00    +0.000 C 
ATOM      7  C   UNL     1      15.216  29.903  21.064  0.00  0.00    +0.000 C 
ATOM      8  O   UNL     1      16.128  30.651  20.357  0.00  0.00    +0.000 OA
ENDROOT
BRANCH   1  10
ATOM      9  C   UNL     1      16.504  34.798  22.462  0.00  0.00    +0.000 C 
ATOM     10  C   UNL     1      15.186  34.081  22.360  0.00  0.00    +0.000 C 
ATOM     11  O   UNL     1      16.454  33.480  22.904  0.00  0.00    +0.000 OA
ATOM     12  C   UNL     1      13.950  34.197  23.538  0.00  0.00    +0.000 C 
BRANCH   9  13
ATOM     13  C   UNL     1      16.676  35.767  23.537  0.00  0.00    +0.000 C 
BRANCH  13  16
ATOM     14  C   UNL     1      14.881  39.204  23.249  0.00  0.00    +0.000 C 
ATOM     15  C   UNL     1      15.295  37.880  23.823  0.00  0.00    +0.000 C 
ATOM     16  C   UNL     1      16.180  37.133  23.175  0.00  0.00    +0.000 C 
ATOM     17  C   UNL     1      14.726  37.415  25.107  0.00  0.00    +0.000 C 
ENDBRANCH  13  16
ENDBRANCH   9  13
ENDBRANCH   1  10
BRANCH   2  18
ATOM     18  O   UNL     1      13.448  35.482  21.356  0.00  0.00    +0.000 OA
ATOM     19  C   UNL     1      13.286  36.647  20.583  0.00  0.00    +0.000 C 
ENDBRANCH   2  18
BRANCH   3  20
ATOM     20  O   UNL     1      14.127  32.045  22.031  0.00  0.00    +0.000 OA
BRANCH  20  21
ATOM     21  C   UNL     1      13.896  31.075  23.562  0.00  0.00    +0.000 C 
ATOM     22  O   UNL     1      12.991  30.300  23.571  0.00  0.00    +0.000 OA
BRANCH  21  23
ATOM     23  C   UNL     1      15.193  31.360  25.052  0.00  0.00    +0.000 C 
ATOM     24  C   UNL     1      15.094  31.902  26.391  0.00  0.00    +0.000 C 
BRANCH  24  25
ATOM     25  C   UNL     1      15.473  33.266  26.950  0.00  0.00    +0.000 C 
ATOM     26  C   UNL     1      15.156  33.802  28.181  0.00  0.00    +0.000 C 
BRANCH  26  27
ATOM     27  C   UNL     1      15.814  34.987  28.692  0.00  0.00    +0.000 C 
ATOM     28  C   UNL     1      15.309  36.237  28.686  0.00  0.00    +0.000 C 
BRANCH  28  29
ATOM     29  C   UNL     1      15.896  37.256  29.540  0.00  0.00    +0.000 C 
ATOM     30  C   UNL     1      16.524  37.007  30.699  0.00  0.00    +0.000 C 
BRANCH  30  31
ATOM     31  C   UNL     1      17.128  38.056  31.542  0.00  0.00    +0.000 C 
ATOM     32  O   UNL     1      16.496  38.757  32.311  0.00  0.00    +0.000 OA
BRANCH  31  33
ATOM     33  O   UNL     1      18.457  38.186  31.385  0.00  0.00    +0.000 OA
ATOM     34  H   UNL     1      18.654  39.131  31.560  0.00  0.00    +0.000 HD
ENDBRANCH  31  33
ENDBRANCH  30  31
ENDBRANCH  28  29
ENDBRANCH  26  27
ENDBRANCH  24  25
ENDBRANCH  21  23
ENDBRANCH  20  21
ENDBRANCH   3  20
TORSDOF 12
ENDMDL
MODEL 4
REMARK VINA RESULT:    -5.626     20.816     24.425
REMARK INTER + INTRA:          -7.403
REMARK INTER:                  -9.256
REMARK INTRA:                   1.853
REMARK UNBOUND:                 1.018
REMARK  Name = 
REMARK  16 active torsions:
REMARK  status: ('A' for Active; 'I' for Inactive)
REMARK    1  A    between atoms: C_1  and  C_2
REMARK    2  A    between atoms: C_2  and  C_33
REMARK    3  A    between atoms: C_3  and  C_4
REMARK    4  A    between atoms: C_4  and  C_5
REMARK    5  A    between atoms: C_6  and  C_8
REMARK    6  A    between atoms: C_6  and  C_9
REMARK    7  A    between atoms: C_10  and  O_31
REMARK    8  A    between atoms: C_11  and  O_17
REMARK    9  A    between atoms: O_17  and  C_18
REMARK   10  A    between atoms: C_18  and  C_20
REMARK   11  A    between atoms: C_21  and  C_22
REMARK   12  A    between atoms: C_23  and  C_24
REMARK   13  A    between atoms: C_25  and  C_26
REMARK   14  A    between atoms: C_27  and  C_28
REMARK   15  A    between atoms: C_28  and  O_30
REMARK   16  A    between atoms: O_31  and  C_32
REMARK                            x       y       z     vdW  Elec       q    Type
REMARK                         _______ _______ _______ _____ _____    ______ ____
ROOT
ATOM      1  C   UNL     1      15.491  31.641  22.346  0.00  0.00    +0.000 C 
ATOM      2  C   UNL     1      15.214  30.185  22.655  0.00  0.00    +0.000 C 
ATOM      3  C   UNL     1      14.045  30.858  23.476  0.00  0.00    +0.000 C 
ATOM      4  C   UNL     1      14.392  31.318  24.980  0.00  0.00    +0.000 C 
ATOM      5  C   UNL     1      15.444  32.392  25.028  0.00  0.00    +0.000 C 
ATOM      6  C   UNL     1      15.252  33.058  23.787  0.00  0.00    +0.000 C 
ATOM      7  C   UNL     1      14.356  34.600  23.956  0.00  0.00    +0.000 C 
ATOM      8  O   UNL     1      15.675  34.482  23.586  0.00  0.00    +0.000 OA
ENDROOT
BRANCH   1  10
ATOM      9  C   UNL     1      15.832  31.920  19.693  0.00  0.00    +0.000 C 
ATOM     10  C   UNL     1      14.852  31.618  20.795  0.00  0.00    +0.000 C 
ATOM     11  O   UNL     1      15.028  32.963  20.142  0.00  0.00    +0.000 OA
ATOM     12  C   UNL     1      13.301  30.949  20.526  0.00  0.00    +0.000 C 
BRANCH   9  13
ATOM     13  C   UNL     1      15.507  31.472  18.345  0.00  0.00    +0.000 C 
BRANCH  13  16
ATOM     14  C   UNL     1      17.713  32.928  15.495  0.00  0.00    +0.000 C 
ATOM     15  C   UNL     1      17.133  31.923  16.446  0.00  0.00    +0.000 C 
ATOM     16  C   UNL     1      16.171  32.293  17.283  0.00  0.00    +0.000 C 
ATOM     17  C   UNL     1      17.624  30.528  16.446  0.00  0.00    +0.000 C 
ENDBRANCH  13  16
ENDBRANCH   9  13
ENDBRANCH   1  10
BRANCH   2  18
ATOM     18  O   UNL     1      14.987  29.294  21.551  0.00  0.00    +0.000 OA
ATOM     19  C   UNL     1      15.703  28.084  21.619  0.00  0.00    +0.000 C 
ENDBRANCH   2  18
BRANCH   3  20
ATOM     20  O   UNL     1      13.739  32.451  22.649  0.00  0.00    +0.000 OA
BRANCH  20  21
ATOM     21  C   UNL     1      12.175  33.330  22.299  0.00  0.00    +0.000 C 
ATOM     22  O   UNL     1      12.220  34.190  21.476  0.00  0.00    +0.000 OA
BRANCH  21  23
ATOM     23  C   UNL     1      10.538  32.748  23.279  0.00  0.00    +0.000 C 
ATOM     24  C   UNL     1      10.297  32.070  24.535  0.00  0.00    +0.000 C 
BRANCH  24  25
ATOM     25  C   UNL     1       9.949  30.620  24.841  0.00  0.00    +0.000 C 
ATOM     26  C   UNL     1      10.770  29.636  25.353  0.00  0.00    +0.000 C 
BRANCH  26  27
ATOM     27  C   UNL     1      10.240  28.384  25.857  0.00  0.00    +0.000 C 
ATOM     28  C   UNL     1       9.664  28.198  27.061  0.00  0.00    +0.000 C 
BRANCH  28  29
ATOM     29  C   UNL     1       8.858  27.011  27.298  0.00  0.00    +0.000 C 
ATOM     30  C   UNL     1       8.531  26.113  26.357  0.00  0.00    +0.000 C 
BRANCH  30  31
ATOM     31  C   UNL     1       7.726  24.906  26.625  0.00  0.00    +0.000 C 
ATOM     32  O   UNL     1       7.218  24.654  27.702  0.00  0.00    +0.000 OA
BRANCH  31  33
ATOM     33  O   UNL     1       7.602  24.088  25.566  0.00  0.00    +0.000 OA
ATOM     34  H   UNL     1       7.086  24.590  24.901  0.00  0.00    +0.000 HD
ENDBRANCH  31  33
ENDBRANCH  30  31
ENDBRANCH  28  29
ENDBRANCH  26  27
ENDBRANCH  24  25
ENDBRANCH  21  23
ENDBRANCH  20  21
ENDBRANCH   3  20
TORSDOF 12
ENDMDL
MODEL 5
REMARK VINA RESULT:    -5.330     23.879     26.604
REMARK INTER + INTRA:          -6.961
REMARK INTER:                  -8.438
REMARK INTRA:                   1.477
REMARK UNBOUND:                 1.018
REMARK  Name = 
REMARK  16 active torsions:
REMARK  status: ('A' for Active; 'I' for Inactive)
REMARK    1  A    between atoms: C_1  and  C_2
REMARK    2  A    between atoms: C_2  and  C_33
REMARK    3  A    between atoms: C_3  and  C_4
REMARK    4  A    between atoms: C_4  and  C_5
REMARK    5  A    between atoms: C_6  and  C_8
REMARK    6  A    between atoms: C_6  and  C_9
REMARK    7  A    between atoms: C_10  and  O_31
REMARK    8  A    between atoms: C_11  and  O_17
REMARK    9  A    between atoms: O_17  and  C_18
REMARK   10  A    between atoms: C_18  and  C_20
REMARK   11  A    between atoms: C_21  and  C_22
REMARK   12  A    between atoms: C_23  and  C_24
REMARK   13  A    between atoms: C_25  and  C_26
REMARK   14  A    between atoms: C_27  and  C_28
REMARK   15  A    between atoms: C_28  and  O_30
REMARK   16  A    between atoms: O_31  and  C_32
REMARK                            x       y       z     vdW  Elec       q    Type
REMARK                         _______ _______ _______ _____ _____    ______ ____
ROOT
ATOM      1  C   UNL     1      24.283  48.927  25.081  0.00  0.00    +0.000 C 
ATOM      2  C   UNL     1      25.557  49.743  25.115  0.00  0.00    +0.000 C 
ATOM      3  C   UNL     1      26.084  48.400  25.754  0.00  0.00    +0.000 C 
ATOM      4  C   UNL     1      25.908  48.239  27.347  0.00  0.00    +0.000 C 
ATOM      5  C   UNL     1      24.464  48.221  27.769  0.00  0.00    +0.000 C 
ATOM      6  C   UNL     1      23.821  47.680  26.622  0.00  0.00    +0.000 C 
ATOM      7  C   UNL     1      23.399  45.950  26.811  0.00  0.00    +0.000 C 
ATOM      8  O   UNL     1      22.497  46.984  26.718  0.00  0.00    +0.000 OA
ENDROOT
BRANCH   1  10
ATOM      9  C   UNL     1      23.253  49.199  22.612  0.00  0.00    +0.000 C 
ATOM     10  C   UNL     1      24.342  48.575  23.441  0.00  0.00    +0.000 C 
ATOM     11  O   UNL     1      23.077  47.879  23.015  0.00  0.00    +0.000 OA
ATOM     12  C   UNL     1      25.747  47.860  22.778  0.00  0.00    +0.000 C 
BRANCH   9  13
ATOM     13  C   UNL     1      23.481  49.345  21.180  0.00  0.00    +0.000 C 
BRANCH  13  16
ATOM     14  C   UNL     1      21.960  46.830  18.635  0.00  0.00    +0.000 C 
ATOM     15  C   UNL     1      22.998  47.610  19.389  0.00  0.00    +0.000 C 
ATOM     16  C   UNL     1      22.621  48.436  20.357  0.00  0.00    +0.000 C 
ATOM     17  C   UNL     1      24.431  47.452  19.060  0.00  0.00    +0.000 C 
ENDBRANCH  13  16
ENDBRANCH   9  13
ENDBRANCH   1  10
BRANCH   2  18
ATOM     18  O   UNL     1      26.052  50.271  23.875  0.00  0.00    +0.000 OA
ATOM     19  C   UNL     1      26.032  51.676  23.787  0.00  0.00    +0.000 C 
ENDBRANCH   2  18
BRANCH   3  20
ATOM     20  O   UNL     1      24.980  47.102  25.114  0.00  0.00    +0.000 OA
BRANCH  20  21
ATOM     21  C   UNL     1      25.301  45.342  24.740  0.00  0.00    +0.000 C 
ATOM     22  O   UNL     1      25.951  44.738  25.536  0.00  0.00    +0.000 OA
BRANCH  21  23
ATOM     23  C   UNL     1      24.505  44.581  23.077  0.00  0.00    +0.000 C 
ATOM     24  C   UNL     1      23.600  45.085  22.065  0.00  0.00    +0.000 C 
BRANCH  24  25
ATOM     25  C   UNL     1      22.110  44.859  21.851  0.00  0.00    +0.000 C 
ATOM     26  C   UNL     1      21.055  45.417  22.543  0.00  0.00    +0.000 C 
BRANCH  26  27
ATOM     27  C   UNL     1      19.692  45.335  22.056  0.00  0.00    +0.000 C 
ATOM     28  C   UNL     1      18.719  46.241  22.273  0.00  0.00    +0.000 C 
BRANCH  28  29
ATOM     29  C   UNL     1      17.526  46.230  21.443  0.00  0.00    +0.000 C 
ATOM     30  C   UNL     1      16.293  45.945  21.887  0.00  0.00    +0.000 C 
BRANCH  30  31
ATOM     31  C   UNL     1      15.093  45.957  21.029  0.00  0.00    +0.000 C 
ATOM     32  O   UNL     1      14.483  44.955  20.700  0.00  0.00    +0.000 OA
BRANCH  31  33
ATOM     33  O   UNL     1      14.723  47.184  20.625  0.00  0.00    +0.000 OA
ATOM     34  H   UNL     1      14.753  47.161  19.645  0.00  0.00    +0.000 HD
ENDBRANCH  31  33
ENDBRANCH  30  31
ENDBRANCH  28  29
ENDBRANCH  26  27
ENDBRANCH  24  25
ENDBRANCH  21  23
ENDBRANCH  20  21
ENDBRANCH   3  20
TORSDOF 12
ENDMDL
MODEL 6
REMARK VINA RESULT:    -5.152     19.910     22.813
REMARK INTER + INTRA:          -6.694
REMARK INTER:                  -9.143
REMARK INTRA:                   2.448
REMARK UNBOUND:                 1.018
REMARK  Name = 
REMARK  16 active torsions:
REMARK  status: ('A' for Active; 'I' for Inactive)
REMARK    1  A    between atoms: C_1  and  C_2
REMARK    2  A    between atoms: C_2  and  C_33
REMARK    3  A    between atoms: C_3  and  C_4
REMARK    4  A    between atoms: C_4  and  C_5
REMARK    5  A    between atoms: C_6  and  C_8
REMARK    6  A    between atoms: C_6  and  C_9
REMARK    7  A    between atoms: C_10  and  O_31
REMARK    8  A    between atoms: C_11  and  O_17
REMARK    9  A    between atoms: O_17  and  C_18
REMARK   10  A    between atoms: C_18  and  C_20
REMARK   11  A    between atoms: C_21  and  C_22
REMARK   12  A    between atoms: C_23  and  C_24
REMARK   13  A    between atoms: C_25  and  C_26
REMARK   14  A    between atoms: C_27  and  C_28
REMARK   15  A    between atoms: C_28  and  O_30
REMARK   16  A    between atoms: O_31  and  C_32
REMARK                            x       y       z     vdW  Elec       q    Type
REMARK                         _______ _______ _______ _____ _____    ______ ____
ROOT
ATOM      1  C   UNL     1      14.885  35.914  24.299  0.00  0.00    +0.000 C 
ATOM      2  C   UNL     1      14.094  37.190  24.109  0.00  0.00    +0.000 C 
ATOM      3  C   UNL     1      13.943  36.566  22.667  0.00  0.00    +0.000 C 
ATOM      4  C   UNL     1      15.112  36.897  21.610  0.00  0.00    +0.000 C 
ATOM      5  C   UNL     1      16.447  36.346  22.033  0.00  0.00    +0.000 C 
ATOM      6  C   UNL     1      16.073  35.211  22.803  0.00  0.00    +0.000 C 
ATOM      7  C   UNL     1      16.260  33.670  21.908  0.00  0.00    +0.000 C 
ATOM      8  O   UNL     1      17.005  34.053  22.999  0.00  0.00    +0.000 OA
ENDROOT
BRANCH   1  10
ATOM      9  C   UNL     1      14.044  34.768  26.582  0.00  0.00    +0.000 C 
ATOM     10  C   UNL     1      13.697  35.095  25.155  0.00  0.00    +0.000 C 
ATOM     11  O   UNL     1      14.224  33.768  25.632  0.00  0.00    +0.000 OA
ATOM     12  C   UNL     1      12.114  34.988  24.517  0.00  0.00    +0.000 C 
BRANCH   9  13
ATOM     13  C   UNL     1      12.953  34.502  27.509  0.00  0.00    +0.000 C 
BRANCH  13  16
ATOM     14  C   UNL     1      13.549  33.090  31.082  0.00  0.00    +0.000 C 
ATOM     15  C   UNL     1      12.972  33.220  29.703  0.00  0.00    +0.000 C 
ATOM     16  C   UNL     1      13.429  34.164  28.888  0.00  0.00    +0.000 C 
ATOM     17  C   UNL     1      11.908  32.298  29.251  0.00  0.00    +0.000 C 
ENDBRANCH  13  16
ENDBRANCH   9  13
ENDBRANCH   1  10
BRANCH   2  18
ATOM     18  O   UNL     1      12.980  37.429  24.983  0.00  0.00    +0.000 OA
ATOM     19  C   UNL     1      13.180  38.462  25.918  0.00  0.00    +0.000 C 
ENDBRANCH   2  18
BRANCH   3  20
ATOM     20  O   UNL     1      14.136  34.771  22.902  0.00  0.00    +0.000 OA
BRANCH  20  21
ATOM     21  C   UNL     1      13.385  33.365  22.009  0.00  0.00    +0.000 C 
ATOM     22  O   UNL     1      12.958  32.476  22.677  0.00  0.00    +0.000 OA
BRANCH  21  23
ATOM     23  C   UNL     1      13.304  33.460  20.018  0.00  0.00    +0.000 C 
ATOM     24  C   UNL     1      13.427  32.488  18.952  0.00  0.00    +0.000 C 
BRANCH  24  25
ATOM     25  C   UNL     1      14.590  32.154  18.028  0.00  0.00    +0.000 C 
ATOM     26  C   UNL     1      14.763  32.520  16.709  0.00  0.00    +0.000 C 
BRANCH  26  27
ATOM     27  C   UNL     1      16.040  32.375  16.037  0.00  0.00    +0.000 C 
ATOM     28  C   UNL     1      17.206  32.925  16.429  0.00  0.00    +0.000 C 
BRANCH  28  29
ATOM     29  C   UNL     1      18.458  32.417  15.893  0.00  0.00    +0.000 C 
ATOM     30  C   UNL     1      19.645  33.029  16.024  0.00  0.00    +0.000 C 
BRANCH  30  31
ATOM     31  C   UNL     1      20.907  32.485  15.486  0.00  0.00    +0.000 C 
ATOM     32  O   UNL     1      21.085  31.309  15.229  0.00  0.00    +0.000 OA
BRANCH  31  33
ATOM     33  O   UNL     1      21.866  33.409  15.307  0.00  0.00    +0.000 OA
ATOM     34  H   UNL     1      21.723  34.080  16.008  0.00  0.00    +0.000 HD
ENDBRANCH  31  33
ENDBRANCH  30  31
ENDBRANCH  28  29
ENDBRANCH  26  27
ENDBRANCH  24  25
ENDBRANCH  21  23
ENDBRANCH  20  21
ENDBRANCH   3  20
TORSDOF 12
ENDMDL
MODEL 7
REMARK VINA RESULT:    -3.927     24.997     27.527
REMARK INTER + INTRA:          -4.860
REMARK INTER:                  -6.498
REMARK INTRA:                   1.638
REMARK UNBOUND:                 1.018
REMARK  Name = 
REMARK  16 active torsions:
REMARK  status: ('A' for Active; 'I' for Inactive)
REMARK    1  A    between atoms: C_1  and  C_2
REMARK    2  A    between atoms: C_2  and  C_33
REMARK    3  A    between atoms: C_3  and  C_4
REMARK    4  A    between atoms: C_4  and  C_5
REMARK    5  A    between atoms: C_6  and  C_8
REMARK    6  A    between atoms: C_6  and  C_9
REMARK    7  A    between atoms: C_10  and  O_31
REMARK    8  A    between atoms: C_11  and  O_17
REMARK    9  A    between atoms: O_17  and  C_18
REMARK   10  A    between atoms: C_18  and  C_20
REMARK   11  A    between atoms: C_21  and  C_22
REMARK   12  A    between atoms: C_23  and  C_24
REMARK   13  A    between atoms: C_25  and  C_26
REMARK   14  A    between atoms: C_27  and  C_28
REMARK   15  A    between atoms: C_28  and  O_30
REMARK   16  A    between atoms: O_31  and  C_32
REMARK                            x       y       z     vdW  Elec       q    Type
REMARK                         _______ _______ _______ _____ _____    ______ ____
ROOT
ATOM      1  C   UNL     1      24.101  48.514  26.505  0.00  0.00    +0.000 C 
ATOM      2  C   UNL     1      25.343  49.239  26.977  0.00  0.00    +0.000 C 
ATOM      3  C   UNL     1      25.764  47.752  27.299  0.00  0.00    +0.000 C 
ATOM      4  C   UNL     1      25.317  47.170  28.733  0.00  0.00    +0.000 C 
ATOM      5  C   UNL     1      23.822  47.094  28.885  0.00  0.00    +0.000 C 
ATOM      6  C   UNL     1      23.392  46.913  27.542  0.00  0.00    +0.000 C 
ATOM      7  C   UNL     1      22.958  45.215  27.173  0.00  0.00    +0.000 C 
ATOM      8  O   UNL     1      22.077  46.270  27.218  0.00  0.00    +0.000 OA
ENDROOT
BRANCH   1  10
ATOM      9  C   UNL     1      23.557  49.550  24.084  0.00  0.00    +0.000 C 
ATOM     10  C   UNL     1      24.445  48.622  24.866  0.00  0.00    +0.000 C 
ATOM     11  O   UNL     1      23.250  48.194  24.057  0.00  0.00    +0.000 OA
ATOM     12  C   UNL     1      25.915  47.985  24.265  0.00  0.00    +0.000 C 
BRANCH   9  13
ATOM     13  C   UNL     1      24.051  50.062  22.812  0.00  0.00    +0.000 C 
BRANCH  13  16
ATOM     14  C   UNL     1      23.247  48.157  19.520  0.00  0.00    +0.000 C 
ATOM     15  C   UNL     1      24.050  48.714  20.658  0.00  0.00    +0.000 C 
ATOM     16  C   UNL     1      23.436  49.377  21.630  0.00  0.00    +0.000 C 
ATOM     17  C   UNL     1      25.515  48.519  20.700  0.00  0.00    +0.000 C 
ENDBRANCH  13  16
ENDBRANCH   9  13
ENDBRANCH   1  10
BRANCH   2  18
ATOM     18  O   UNL     1      26.040  50.066  26.032  0.00  0.00    +0.000 OA
ATOM     19  C   UNL     1      27.334  50.450  26.432  0.00  0.00    +0.000 C 
ENDBRANCH   2  18
BRANCH   3  20
ATOM     20  O   UNL     1      24.798  46.723  26.150  0.00  0.00    +0.000 OA
BRANCH  20  21
ATOM     21  C   UNL     1      25.248  45.198  25.251  0.00  0.00    +0.000 C 
ATOM     22  O   UNL     1      26.073  44.504  25.758  0.00  0.00    +0.000 OA
BRANCH  21  23
ATOM     23  C   UNL     1      24.295  44.805  23.543  0.00  0.00    +0.000 C 
ATOM     24  C   UNL     1      22.947  45.025  23.062  0.00  0.00    +0.000 C 
BRANCH  24  25
ATOM     25  C   UNL     1      21.760  44.079  22.938  0.00  0.00    +0.000 C 
ATOM     26  C   UNL     1      21.206  43.274  23.912  0.00  0.00    +0.000 C 
BRANCH  26  27
ATOM     27  C   UNL     1      19.914  42.642  23.736  0.00  0.00    +0.000 C 
ATOM     28  C   UNL     1      18.958  42.521  24.679  0.00  0.00    +0.000 C 
BRANCH  28  29
ATOM     29  C   UNL     1      17.595  42.204  24.287  0.00  0.00    +0.000 C 
ATOM     30  C   UNL     1      17.185  40.997  23.869  0.00  0.00    +0.000 C 
BRANCH  30  31
ATOM     31  C   UNL     1      15.792  40.693  23.492  0.00  0.00    +0.000 C 
ATOM     32  O   UNL     1      14.818  41.165  24.051  0.00  0.00    +0.000 OA
BRANCH  31  33
ATOM     33  O   UNL     1      15.679  39.832  22.466  0.00  0.00    +0.000 OA
ATOM     34  H   UNL     1      14.756  39.502  22.497  0.00  0.00    +0.000 HD
ENDBRANCH  31  33
ENDBRANCH  30  31
ENDBRANCH  28  29
ENDBRANCH  26  27
ENDBRANCH  24  25
ENDBRANCH  21  23
ENDBRANCH  20  21
ENDBRANCH   3  20
TORSDOF 12
ENDMDL
MODEL 8
REMARK VINA RESULT:    -3.086     25.701     28.212
REMARK INTER + INTRA:          -3.602
REMARK INTER:                  -5.239
REMARK INTRA:                   1.637
REMARK UNBOUND:                 1.018
REMARK  Name = 
REMARK  16 active torsions:
REMARK  status: ('A' for Active; 'I' for Inactive)
REMARK    1  A    between atoms: C_1  and  C_2
REMARK    2  A    between atoms: C_2  and  C_33
REMARK    3  A    between atoms: C_3  and  C_4
REMARK    4  A    between atoms: C_4  and  C_5
REMARK    5  A    between atoms: C_6  and  C_8
REMARK    6  A    between atoms: C_6  and  C_9
REMARK    7  A    between atoms: C_10  and  O_31
REMARK    8  A    between atoms: C_11  and  O_17
REMARK    9  A    between atoms: O_17  and  C_18
REMARK   10  A    between atoms: C_18  and  C_20
REMARK   11  A    between atoms: C_21  and  C_22
REMARK   12  A    between atoms: C_23  and  C_24
REMARK   13  A    between atoms: C_25  and  C_26
REMARK   14  A    between atoms: C_27  and  C_28
REMARK   15  A    between atoms: C_28  and  O_30
REMARK   16  A    between atoms: O_31  and  C_32
REMARK                            x       y       z     vdW  Elec       q    Type
REMARK                         _______ _______ _______ _____ _____    ______ ____
ROOT
ATOM      1  C   UNL     1      24.542  48.067  27.483  0.00  0.00    +0.000 C 
ATOM      2  C   UNL     1      25.621  48.374  28.499  0.00  0.00    +0.000 C 
ATOM      3  C   UNL     1      25.601  46.798  28.599  0.00  0.00    +0.000 C 
ATOM      4  C   UNL     1      24.540  46.153  29.624  0.00  0.00    +0.000 C 
ATOM      5  C   UNL     1      23.114  46.443  29.239  0.00  0.00    +0.000 C 
ATOM      6  C   UNL     1      23.205  46.571  27.825  0.00  0.00    +0.000 C 
ATOM      7  C   UNL     1      22.637  45.112  26.956  0.00  0.00    +0.000 C 
ATOM      8  O   UNL     1      22.019  46.340  26.938  0.00  0.00    +0.000 OA
ENDROOT
BRANCH   1  10
ATOM      9  C   UNL     1      25.197  49.562  25.346  0.00  0.00    +0.000 C 
ATOM     10  C   UNL     1      25.501  48.314  26.127  0.00  0.00    +0.000 C 
ATOM     11  O   UNL     1      24.645  48.370  24.891  0.00  0.00    +0.000 OA
ATOM     12  C   UNL     1      26.918  47.381  25.910  0.00  0.00    +0.000 C 
BRANCH   9  13
ATOM     13  C   UNL     1      26.236  50.094  24.474  0.00  0.00    +0.000 C 
BRANCH  13  16
ATOM     14  C   UNL     1      25.419  50.380  20.683  0.00  0.00    +0.000 C 
ATOM     15  C   UNL     1      25.976  49.824  21.961  0.00  0.00    +0.000 C 
ATOM     16  C   UNL     1      25.728  50.443  23.108  0.00  0.00    +0.000 C 
ATOM     17  C   UNL     1      26.790  48.589  21.942  0.00  0.00    +0.000 C 
ENDBRANCH  13  16
ENDBRANCH   9  13
ENDBRANCH   1  10
BRANCH   2  18
ATOM     18  O   UNL     1      26.767  49.119  28.061  0.00  0.00    +0.000 OA
ATOM     19  C   UNL     1      27.126  50.190  28.902  0.00  0.00    +0.000 C 
ENDBRANCH   2  18
BRANCH   3  20
ATOM     20  O   UNL     1      24.975  46.226  26.988  0.00  0.00    +0.000 OA
BRANCH  20  21
ATOM     21  C   UNL     1      25.377  44.732  26.017  0.00  0.00    +0.000 C 
ATOM     22  O   UNL     1      25.733  43.776  26.633  0.00  0.00    +0.000 OA
BRANCH  21  23
ATOM     23  C   UNL     1      25.141  44.814  24.038  0.00  0.00    +0.000 C 
ATOM     24  C   UNL     1      24.547  45.771  23.128  0.00  0.00    +0.000 C 
BRANCH  24  25
ATOM     25  C   UNL     1      23.197  45.780  22.423  0.00  0.00    +0.000 C 
ATOM     26  C   UNL     1      21.952  46.018  22.968  0.00  0.00    +0.000 C 
BRANCH  26  27
ATOM     27  C   UNL     1      20.791  46.274  22.139  0.00  0.00    +0.000 C 
ATOM     28  C   UNL     1      19.959  45.341  21.634  0.00  0.00    +0.000 C 
BRANCH  28  29
ATOM     29  C   UNL     1      18.651  45.736  21.138  0.00  0.00    +0.000 C 
ATOM     30  C   UNL     1      17.515  45.666  21.847  0.00  0.00    +0.000 C 
BRANCH  30  31
ATOM     31  C   UNL     1      16.201  46.088  21.328  0.00  0.00    +0.000 C 
ATOM     32  O   UNL     1      15.988  47.174  20.819  0.00  0.00    +0.000 OA
BRANCH  31  33
ATOM     33  O   UNL     1      15.235  45.165  21.471  0.00  0.00    +0.000 OA
ATOM     34  H   UNL     1      14.850  45.043  20.577  0.00  0.00    +0.000 HD
ENDBRANCH  31  33
ENDBRANCH  30  31
ENDBRANCH  28  29
ENDBRANCH  26  27
ENDBRANCH  24  25
ENDBRANCH  21  23
ENDBRANCH  20  21
ENDBRANCH   3  20
TORSDOF 12
ENDMDL
