MODEL 1
REMARK VINA RESULT:    -5.403      0.000      0.000
REMARK INTER + INTRA:          -9.881
REMARK INTER:                  -8.245
REMARK INTRA:                  -1.636
REMARK UNBOUND:                -1.636
REMARK  Name = 
REMARK  15 active torsions:
REMARK  status: ('A' for Active; 'I' for Inactive)
REMARK    1  A    between atoms: C_1  and  C_2
REMARK    2  A    between atoms: C_2  and  C_3
REMARK    3  A    between atoms: C_2  and  C_4
REMARK    4  A    between atoms: C_4  and  C_5
REMARK    5  A    between atoms: C_4  and  N_8
REMARK    6  A    between atoms: C_9  and  O_11
REMARK    7  A    between atoms: O_11  and  C_12
REMARK    8  A    between atoms: C_18  and  C_22
REMARK    9  A    between atoms: C_19  and  O_20
REMARK   10  A    between atoms: O_20  and  C_21
REMARK   11  A    between atoms: C_22  and  C_30
REMARK   12  A    between atoms: C_23  and  C_25
REMARK   13  A    between atoms: C_25  and  C_26
REMARK   14  A    between atoms: C_27  and  C_28
REMARK   15  A    between atoms: C_27  and  C_29
REMARK                            x       y       z     vdW  Elec       q    Type
REMARK                         _______ _______ _______ _____ _____    ______ ____
ROOT
ATOM      1  C   UNL     1      13.992  30.761  23.265  0.00  0.00    +0.000 C 
ATOM      2  C   UNL     1      14.417  29.364  22.867  0.00  0.00    +0.000 C 
ATOM      3  C   UNL     1      15.175  29.403  21.535  0.00  0.00    +0.000 C 
ATOM      4  C   UNL     1      14.348  30.008  20.428  0.00  0.00    +0.000 C 
ATOM      5  C   UNL     1      14.857  29.824  19.016  0.00  0.00    +0.000 C 
ATOM      6  O   UNL     1      13.705  29.119  19.525  0.00  0.00    +0.000 OA
ATOM      7  C   UNL     1      13.672  31.283  20.799  0.00  0.00    +0.000 C 
ATOM      8  C   UNL     1      12.995  31.212  22.212  0.00  0.00    +0.000 C 
ENDROOT
BRANCH   7   9
ATOM      9  C   UNL     1      12.829  32.096  19.841  0.00  0.00    +0.000 C 
ATOM     10  C   UNL     1      13.598  32.835  18.616  0.00  0.00    +0.000 C 
ATOM     11  O   UNL     1      12.875  33.508  19.649  0.00  0.00    +0.000 OA
ATOM     12  C   UNL     1      11.400  31.556  19.972  0.00  0.00    +0.000 C 
BRANCH  10  13
ATOM     13  C   UNL     1      13.119  32.925  17.172  0.00  0.00    +0.000 C 
BRANCH  13  14
ATOM     14  C   UNL     1      11.951  33.905  16.969  0.00  0.00    +0.000 C 
ATOM     15  C   UNL     1      11.474  34.307  15.761  0.00  0.00    +0.000 C 
ATOM     16  C   UNL     1      10.682  35.618  15.608  0.00  0.00    +0.000 C 
ATOM     17  C   UNL     1      12.042  33.712  14.489  0.00  0.00    +0.000 C 
ENDBRANCH  13  14
ENDBRANCH  10  13
ENDBRANCH   7   9
BRANCH   8  18
ATOM     18  O   UNL     1      12.620  32.473  22.766  0.00  0.00    +0.000 OA
ATOM     19  C   UNL     1      11.651  32.320  23.737  0.00  0.00    +0.000 C 
ENDBRANCH   8  18
BRANCH   1  20
ATOM     20  O   UNL     1      15.132  31.661  23.251  0.00  0.00    +0.000 OA
BRANCH  20  22
ATOM     21  N   UNL     1      15.464  33.672  24.251  0.00  0.00    +0.000 N 
ATOM     22  C   UNL     1      15.342  32.322  24.418  0.00  0.00    +0.000 C 
ATOM     23  O   UNL     1      15.506  31.801  25.491  0.00  0.00    +0.000 OA
ATOM     24  H   UNL     1      15.542  34.149  25.139  0.00  0.00    +0.000 HD
BRANCH  21  25
ATOM     25  C   UNL     1      15.385  34.499  23.040  0.00  0.00    +0.000 C 
BRANCH  25  26
ATOM     26  C   UNL     1      14.043  35.304  23.080  0.00  0.00    +0.000 C 
ATOM     27  O   UNL     1      13.701  36.002  24.032  0.00  0.00    +0.000 OA
ATOM     28  N   UNL     1      13.238  35.283  21.968  0.00  0.00    +0.000 N 
ATOM     29  H   UNL     1      13.459  34.812  21.103  0.00  0.00    +0.000 HD
ATOM     30  H   UNL     1      12.546  36.024  21.907  0.00  0.00    +0.000 HD
ENDBRANCH  25  26
BRANCH  25  32
ATOM     31  C   UNL     1      17.833  34.712  22.198  0.00  0.00    +0.000 C 
ATOM     32  C   UNL     1      16.668  35.403  22.909  0.00  0.00    +0.000 C 
ATOM     33  C   UNL     1      16.445  36.735  22.175  0.00  0.00    +0.000 C 
ENDBRANCH  25  32
ENDBRANCH  21  25
ENDBRANCH  20  22
ENDBRANCH   1  20
TORSDOF 9
ENDMDL
MODEL 2
REMARK VINA RESULT:    -5.318     21.497     24.864
REMARK INTER + INTRA:          -9.752
REMARK INTER:                  -7.787
REMARK INTRA:                  -1.965
REMARK UNBOUND:                -1.636
REMARK  Name = 
REMARK  15 active torsions:
REMARK  status: ('A' for Active; 'I' for Inactive)
REMARK    1  A    between atoms: C_1  and  C_2
REMARK    2  A    between atoms: C_2  and  C_3
REMARK    3  A    between atoms: C_2  and  C_4
REMARK    4  A    between atoms: C_4  and  C_5
REMARK    5  A    between atoms: C_4  and  N_8
REMARK    6  A    between atoms: C_9  and  O_11
REMARK    7  A    between atoms: O_11  and  C_12
REMARK    8  A    between atoms: C_18  and  C_22
REMARK    9  A    between atoms: C_19  and  O_20
REMARK   10  A    between atoms: O_20  and  C_21
REMARK   11  A    between atoms: C_22  and  C_30
REMARK   12  A    between atoms: C_23  and  C_25
REMARK   13  A    between atoms: C_25  and  C_26
REMARK   14  A    between atoms: C_27  and  C_28
REMARK   15  A    between atoms: C_27  and  C_29
REMARK                            x       y       z     vdW  Elec       q    Type
REMARK                         _______ _______ _______ _____ _____    ______ ____
ROOT
ATOM      1  C   UNL     1       2.148  18.550   1.563  0.00  0.00    +0.000 C 
ATOM      2  C   UNL     1       2.450  17.107   1.224  0.00  0.00    +0.000 C 
ATOM      3  C   UNL     1       3.915  16.786   1.540  0.00  0.00    +0.000 C 
ATOM      4  C   UNL     1       4.868  17.685   0.790  0.00  0.00    +0.000 C 
ATOM      5  C   UNL     1       6.323  17.277   0.774  0.00  0.00    +0.000 C 
ATOM      6  O   UNL     1       5.473  17.169  -0.387  0.00  0.00    +0.000 OA
ATOM      7  C   UNL     1       4.517  19.132   0.853  0.00  0.00    +0.000 C 
ATOM      8  C   UNL     1       2.988  19.389   0.616  0.00  0.00    +0.000 C 
ENDROOT
BRANCH   7   9
ATOM      9  C   UNL     1       5.349  20.226   0.220  0.00  0.00    +0.000 C 
ATOM     10  C   UNL     1       6.631  20.766   1.058  0.00  0.00    +0.000 C 
ATOM     11  O   UNL     1       5.504  21.563   0.690  0.00  0.00    +0.000 OA
ATOM     12  C   UNL     1       5.072  20.149  -1.286  0.00  0.00    +0.000 C 
BRANCH  10  13
ATOM     13  C   UNL     1       8.008  21.092   0.492  0.00  0.00    +0.000 C 
BRANCH  13  14
ATOM     14  C   UNL     1       9.139  21.009   1.531  0.00  0.00    +0.000 C 
ATOM     15  C   UNL     1       9.602  22.058   2.262  0.00  0.00    +0.000 C 
ATOM     16  C   UNL     1      11.008  22.041   2.886  0.00  0.00    +0.000 C 
ATOM     17  C   UNL     1       8.934  23.412   2.145  0.00  0.00    +0.000 C 
ENDBRANCH  13  14
ENDBRANCH  10  13
ENDBRANCH   7   9
BRANCH   8  18
ATOM     18  O   UNL     1       2.530  20.690   0.982  0.00  0.00    +0.000 OA
ATOM     19  C   UNL     1       1.355  21.004   0.329  0.00  0.00    +0.000 C 
ENDBRANCH   8  18
BRANCH   1  20
ATOM     20  O   UNL     1       2.544  18.844   2.930  0.00  0.00    +0.000 OA
BRANCH  20  22
ATOM     21  N   UNL     1       2.036  20.614   4.257  0.00  0.00    +0.000 N 
ATOM     22  C   UNL     1       1.591  19.463   3.672  0.00  0.00    +0.000 C 
ATOM     23  O   UNL     1       0.491  19.026   3.894  0.00  0.00    +0.000 OA
ATOM     24  H   UNL     1       1.289  21.096   4.740  0.00  0.00    +0.000 HD
BRANCH  21  25
ATOM     25  C   UNL     1       3.344  21.278   4.194  0.00  0.00    +0.000 C 
BRANCH  25  26
ATOM     26  C   UNL     1       3.134  22.726   3.639  0.00  0.00    +0.000 C 
ATOM     27  O   UNL     1       2.427  23.566   4.191  0.00  0.00    +0.000 OA
ATOM     28  N   UNL     1       3.829  23.100   2.515  0.00  0.00    +0.000 N 
ATOM     29  H   UNL     1       4.499  22.520   2.030  0.00  0.00    +0.000 HD
ATOM     30  H   UNL     1       3.905  24.099   2.352  0.00  0.00    +0.000 HD
ENDBRANCH  25  26
BRANCH  25  32
ATOM     31  C   UNL     1       5.263  22.159   5.707  0.00  0.00    +0.000 C 
ATOM     32  C   UNL     1       4.053  21.229   5.600  0.00  0.00    +0.000 C 
ATOM     33  C   UNL     1       3.144  21.568   6.791  0.00  0.00    +0.000 C 
ENDBRANCH  25  32
ENDBRANCH  21  25
ENDBRANCH  20  22
ENDBRANCH   1  20
TORSDOF 9
ENDMDL
MODEL 3
REMARK VINA RESULT:    -5.143     16.003     19.090
REMARK INTER + INTRA:          -9.484
REMARK INTER:                  -7.965
REMARK INTRA:                  -1.519
REMARK UNBOUND:                -1.636
REMARK  Name = 
REMARK  15 active torsions:
REMARK  status: ('A' for Active; 'I' for Inactive)
REMARK    1  A    between atoms: C_1  and  C_2
REMARK    2  A    between atoms: C_2  and  C_3
REMARK    3  A    between atoms: C_2  and  C_4
REMARK    4  A    between atoms: C_4  and  C_5
REMARK    5  A    between atoms: C_4  and  N_8
REMARK    6  A    between atoms: C_9  and  O_11
REMARK    7  A    between atoms: O_11  and  C_12
REMARK    8  A    between atoms: C_18  and  C_22
REMARK    9  A    between atoms: C_19  and  O_20
REMARK   10  A    between atoms: O_20  and  C_21
REMARK   11  A    between atoms: C_22  and  C_30
REMARK   12  A    between atoms: C_23  and  C_25
REMARK   13  A    between atoms: C_25  and  C_26
REMARK   14  A    between atoms: C_27  and  C_28
REMARK   15  A    between atoms: C_27  and  C_29
REMARK                            x       y       z     vdW  Elec       q    Type
REMARK                         _______ _______ _______ _____ _____    ______ ____
ROOT
ATOM      1  C   UNL     1       6.559  27.541   6.105  0.00  0.00    +0.000 C 
ATOM      2  C   UNL     1       5.463  27.052   5.182  0.00  0.00    +0.000 C 
ATOM      3  C   UNL     1       5.965  27.031   3.733  0.00  0.00    +0.000 C 
ATOM      4  C   UNL     1       6.435  28.389   3.275  0.00  0.00    +0.000 C 
ATOM      5  C   UNL     1       6.660  28.570   1.791  0.00  0.00    +0.000 C 
ATOM      6  O   UNL     1       5.543  29.163   2.485  0.00  0.00    +0.000 OA
ATOM      7  C   UNL     1       7.339  29.079   4.238  0.00  0.00    +0.000 C 
ATOM      8  C   UNL     1       6.822  28.985   5.716  0.00  0.00    +0.000 C 
ENDROOT
BRANCH   7   9
ATOM      9  C   UNL     1       7.973  30.427   3.976  0.00  0.00    +0.000 C 
ATOM     10  C   UNL     1       9.300  30.456   3.039  0.00  0.00    +0.000 C 
ATOM     11  O   UNL     1       9.260  30.865   4.408  0.00  0.00    +0.000 OA
ATOM     12  C   UNL     1       6.874  31.467   4.221  0.00  0.00    +0.000 C 
BRANCH  10  13
ATOM     13  C   UNL     1       9.616  31.476   1.952  0.00  0.00    +0.000 C 
BRANCH  13  14
ATOM     14  C   UNL     1      10.307  32.745   2.478  0.00  0.00    +0.000 C 
ATOM     15  C   UNL     1      11.233  33.467   1.793  0.00  0.00    +0.000 C 
ATOM     16  C   UNL     1      12.228  34.389   2.518  0.00  0.00    +0.000 C 
ATOM     17  C   UNL     1      11.584  33.087   0.369  0.00  0.00    +0.000 C 
ENDBRANCH  13  14
ENDBRANCH  10  13
ENDBRANCH   7   9
BRANCH   8  18
ATOM     18  O   UNL     1       7.782  29.328   6.715  0.00  0.00    +0.000 OA
ATOM     19  C   UNL     1       7.163  29.765   7.869  0.00  0.00    +0.000 C 
ENDBRANCH   8  18
BRANCH   1  20
ATOM     20  O   UNL     1       7.774  26.771   5.903  0.00  0.00    +0.000 OA
BRANCH  20  22
ATOM     21  N   UNL     1       8.328  24.571   6.002  0.00  0.00    +0.000 N 
ATOM     22  C   UNL     1       7.876  25.665   6.684  0.00  0.00    +0.000 C 
ATOM     23  O   UNL     1       7.524  25.592   7.833  0.00  0.00    +0.000 OA
ATOM     24  H   UNL     1       8.469  23.783   6.620  0.00  0.00    +0.000 HD
BRANCH  21  25
ATOM     25  C   UNL     1       8.728  24.415   4.599  0.00  0.00    +0.000 C 
BRANCH  25  26
ATOM     26  C   UNL     1      10.266  24.687   4.492  0.00  0.00    +0.000 C 
ATOM     27  O   UNL     1      10.745  25.630   3.866  0.00  0.00    +0.000 OA
ATOM     28  N   UNL     1      11.122  23.869   5.187  0.00  0.00    +0.000 N 
ATOM     29  H   UNL     1      10.835  23.117   5.798  0.00  0.00    +0.000 HD
ATOM     30  H   UNL     1      12.058  24.231   5.339  0.00  0.00    +0.000 HD
ENDBRANCH  25  26
BRANCH  25  32
ATOM     31  C   UNL     1       6.775  22.803   4.020  0.00  0.00    +0.000 C 
ATOM     32  C   UNL     1       8.292  23.001   4.058  0.00  0.00    +0.000 C 
ATOM     33  C   UNL     1       8.805  22.664   2.649  0.00  0.00    +0.000 C 
ENDBRANCH  25  32
ENDBRANCH  21  25
ENDBRANCH  20  22
ENDBRANCH   1  20
TORSDOF 9
ENDMDL
MODEL 4
REMARK VINA RESULT:    -4.855     16.397     19.792
REMARK INTER + INTRA:          -9.044
REMARK INTER:                  -6.975
REMARK INTRA:                  -2.070
REMARK UNBOUND:                -1.636
REMARK  Name = 
REMARK  15 active torsions:
REMARK  status: ('A' for Active; 'I' for Inactive)
REMARK    1  A    between atoms: C_1  and  C_2
REMARK    2  A    between atoms: C_2  and  C_3
REMARK    3  A    between atoms: C_2  and  C_4
REMARK    4  A    between atoms: C_4  and  C_5
REMARK    5  A    between atoms: C_4  and  N_8
REMARK    6  A    between atoms: C_9  and  O_11
REMARK    7  A    between atoms: O_11  and  C_12
REMARK    8  A    between atoms: C_18  and  C_22
REMARK    9  A    between atoms: C_19  and  O_20
REMARK   10  A    between atoms: O_20  and  C_21
REMARK   11  A    between atoms: C_22  and  C_30
REMARK   12  A    between atoms: C_23  and  C_25
REMARK   13  A    between atoms: C_25  and  C_26
REMARK   14  A    between atoms: C_27  and  C_28
REMARK   15  A    between atoms: C_27  and  C_29
REMARK                            x       y       z     vdW  Elec       q    Type
REMARK                         _______ _______ _______ _____ _____    ______ ____
ROOT
ATOM      1  C   UNL     1       6.892  25.857   8.020  0.00  0.00    +0.000 C 
ATOM      2  C   UNL     1       7.077  27.269   7.509  0.00  0.00    +0.000 C 
ATOM      3  C   UNL     1       6.316  27.458   6.192  0.00  0.00    +0.000 C 
ATOM      4  C   UNL     1       6.765  26.480   5.133  0.00  0.00    +0.000 C 
ATOM      5  C   UNL     1       6.320  26.758   3.715  0.00  0.00    +0.000 C 
ATOM      6  O   UNL     1       7.682  26.946   4.153  0.00  0.00    +0.000 OA
ATOM      7  C   UNL     1       6.857  25.070   5.604  0.00  0.00    +0.000 C 
ATOM      8  C   UNL     1       7.560  24.951   7.001  0.00  0.00    +0.000 C 
ENDROOT
BRANCH   7   9
ATOM      9  C   UNL     1       7.238  23.910   4.712  0.00  0.00    +0.000 C 
ATOM     10  C   UNL     1       6.098  23.341   3.703  0.00  0.00    +0.000 C 
ATOM     11  O   UNL     1       6.705  22.587   4.754  0.00  0.00    +0.000 OA
ATOM     12  C   UNL     1       8.767  23.936   4.613  0.00  0.00    +0.000 C 
BRANCH  10  13
ATOM     13  C   UNL     1       6.304  22.921   2.252  0.00  0.00    +0.000 C 
BRANCH  13  14
ATOM     14  C   UNL     1       6.242  21.400   2.035  0.00  0.00    +0.000 C 
ATOM     15  C   UNL     1       7.319  20.603   1.806  0.00  0.00    +0.000 C 
ATOM     16  C   UNL     1       7.172  19.234   1.118  0.00  0.00    +0.000 C 
ATOM     17  C   UNL     1       8.715  21.192   1.841  0.00  0.00    +0.000 C 
ENDBRANCH  13  14
ENDBRANCH  10  13
ENDBRANCH   7   9
BRANCH   8  18
ATOM     18  O   UNL     1       7.393  23.694   7.657  0.00  0.00    +0.000 OA
ATOM     19  C   UNL     1       8.303  23.546   8.684  0.00  0.00    +0.000 C 
ENDBRANCH   8  18
BRANCH   1  20
ATOM     20  O   UNL     1       5.480  25.524   8.091  0.00  0.00    +0.000 OA
BRANCH  20  22
ATOM     21  N   UNL     1       3.814  24.566   9.300  0.00  0.00    +0.000 N 
ATOM     22  C   UNL     1       5.052  25.143   9.322  0.00  0.00    +0.000 C 
ATOM     23  O   UNL     1       5.629  25.361  10.356  0.00  0.00    +0.000 OA
ATOM     24  H   UNL     1       3.551  24.221  10.214  0.00  0.00    +0.000 HD
BRANCH  21  25
ATOM     25  C   UNL     1       2.908  24.283   8.181  0.00  0.00    +0.000 C 
BRANCH  25  26
ATOM     26  C   UNL     1       3.284  22.886   7.583  0.00  0.00    +0.000 C 
ATOM     27  O   UNL     1       2.630  21.865   7.786  0.00  0.00    +0.000 OA
ATOM     28  N   UNL     1       4.360  22.809   6.735  0.00  0.00    +0.000 N 
ATOM     29  H   UNL     1       4.917  23.596   6.435  0.00  0.00    +0.000 HD
ATOM     30  H   UNL     1       4.404  21.983   6.146  0.00  0.00    +0.000 HD
ENDBRANCH  25  26
BRANCH  25  32
ATOM     31  C   UNL     1       1.162  25.521   9.654  0.00  0.00    +0.000 C 
ATOM     32  C   UNL     1       1.407  24.395   8.648  0.00  0.00    +0.000 C 
ATOM     33  C   UNL     1       0.394  24.604   7.512  0.00  0.00    +0.000 C 
ENDBRANCH  25  32
ENDBRANCH  21  25
ENDBRANCH  20  22
ENDBRANCH   1  20
TORSDOF 9
ENDMDL
MODEL 5
REMARK VINA RESULT:    -4.621     18.769     21.214
REMARK INTER + INTRA:          -8.687
REMARK INTER:                  -6.794
REMARK INTRA:                  -1.894
REMARK UNBOUND:                -1.636
REMARK  Name = 
REMARK  15 active torsions:
REMARK  status: ('A' for Active; 'I' for Inactive)
REMARK    1  A    between atoms: C_1  and  C_2
REMARK    2  A    between atoms: C_2  and  C_3
REMARK    3  A    between atoms: C_2  and  C_4
REMARK    4  A    between atoms: C_4  and  C_5
REMARK    5  A    between atoms: C_4  and  N_8
REMARK    6  A    between atoms: C_9  and  O_11
REMARK    7  A    between atoms: O_11  and  C_12
REMARK    8  A    between atoms: C_18  and  C_22
REMARK    9  A    between atoms: C_19  and  O_20
REMARK   10  A    between atoms: O_20  and  C_21
REMARK   11  A    between atoms: C_22  and  C_30
REMARK   12  A    between atoms: C_23  and  C_25
REMARK   13  A    between atoms: C_25  and  C_26
REMARK   14  A    between atoms: C_27  and  C_28
REMARK   15  A    between atoms: C_27  and  C_29
REMARK                            x       y       z     vdW  Elec       q    Type
REMARK                         _______ _______ _______ _____ _____    ______ ____
ROOT
ATOM      1  C   UNL     1      14.412  37.779   2.159  0.00  0.00    +0.000 C 
ATOM      2  C   UNL     1      14.661  36.288   2.222  0.00  0.00    +0.000 C 
ATOM      3  C   UNL     1      13.571  35.538   1.447  0.00  0.00    +0.000 C 
ATOM      4  C   UNL     1      12.190  35.836   1.976  0.00  0.00    +0.000 C 
ATOM      5  C   UNL     1      11.069  34.935   1.509  0.00  0.00    +0.000 C 
ATOM      6  O   UNL     1      11.599  34.884   2.850  0.00  0.00    +0.000 OA
ATOM      7  C   UNL     1      11.919  37.286   2.189  0.00  0.00    +0.000 C 
ATOM      8  C   UNL     1      13.108  38.019   2.901  0.00  0.00    +0.000 C 
ENDROOT
BRANCH   7   9
ATOM      9  C   UNL     1      10.591  37.830   2.667  0.00  0.00    +0.000 C 
ATOM     10  C   UNL     1       9.411  37.989   1.562  0.00  0.00    +0.000 C 
ATOM     11  O   UNL     1       9.991  39.069   2.296  0.00  0.00    +0.000 OA
ATOM     12  C   UNL     1      10.547  37.573   4.178  0.00  0.00    +0.000 C 
BRANCH  10  13
ATOM     13  C   UNL     1       7.938  37.645   1.757  0.00  0.00    +0.000 C 
BRANCH  13  14
ATOM     14  C   UNL     1       7.171  38.673   2.605  0.00  0.00    +0.000 C 
ATOM     15  C   UNL     1       6.670  38.439   3.847  0.00  0.00    +0.000 C 
ATOM     16  C   UNL     1       5.521  39.286   4.421  0.00  0.00    +0.000 C 
ATOM     17  C   UNL     1       6.931  37.110   4.527  0.00  0.00    +0.000 C 
ENDBRANCH  13  14
ENDBRANCH  10  13
ENDBRANCH   7   9
BRANCH   8  18
ATOM     18  O   UNL     1      13.062  39.444   2.843  0.00  0.00    +0.000 OA
ATOM     19  C   UNL     1      13.966  40.006   3.722  0.00  0.00    +0.000 C 
ENDBRANCH   8  18
BRANCH   1  20
ATOM     20  O   UNL     1      14.254  38.209   0.780  0.00  0.00    +0.000 OA
BRANCH  20  22
ATOM     21  N   UNL     1      15.603  38.008  -1.034  0.00  0.00    +0.000 N 
ATOM     22  C   UNL     1      15.404  38.604   0.178  0.00  0.00    +0.000 C 
ATOM     23  O   UNL     1      16.232  39.327   0.671  0.00  0.00    +0.000 OA
ATOM     24  H   UNL     1      16.424  38.376  -1.496  0.00  0.00    +0.000 HD
BRANCH  21  25
ATOM     25  C   UNL     1      14.779  37.047  -1.776  0.00  0.00    +0.000 C 
BRANCH  25  26
ATOM     26  C   UNL     1      14.323  37.718  -3.115  0.00  0.00    +0.000 C 
ATOM     27  O   UNL     1      14.526  37.225  -4.222  0.00  0.00    +0.000 OA
ATOM     28  N   UNL     1      13.603  38.884  -3.045  0.00  0.00    +0.000 N 
ATOM     29  H   UNL     1      13.309  39.333  -2.189  0.00  0.00    +0.000 HD
ATOM     30  H   UNL     1      13.081  39.134  -3.880  0.00  0.00    +0.000 HD
ENDBRANCH  25  26
BRANCH  25  32
ATOM     31  C   UNL     1      16.530  35.373  -0.836  0.00  0.00    +0.000 C 
ATOM     32  C   UNL     1      15.560  35.693  -1.975  0.00  0.00    +0.000 C 
ATOM     33  C   UNL     1      14.667  34.453  -2.141  0.00  0.00    +0.000 C 
ENDBRANCH  25  32
ENDBRANCH  21  25
ENDBRANCH  20  22
ENDBRANCH   1  20
TORSDOF 9
ENDMDL
MODEL 6
REMARK VINA RESULT:    -4.577     18.790     21.789
REMARK INTER + INTRA:          -8.621
REMARK INTER:                  -6.873
REMARK INTRA:                  -1.748
REMARK UNBOUND:                -1.636
REMARK  Name = 
REMARK  15 active torsions:
REMARK  status: ('A' for Active; 'I' for Inactive)
REMARK    1  A    between atoms: C_1  and  C_2
REMARK    2  A    between atoms: C_2  and  C_3
REMARK    3  A    between atoms: C_2  and  C_4
REMARK    4  A    between atoms: C_4  and  C_5
REMARK    5  A    between atoms: C_4  and  N_8
REMARK    6  A    between atoms: C_9  and  O_11
REMARK    7  A    between atoms: O_11  and  C_12
REMARK    8  A    between atoms: C_18  and  C_22
REMARK    9  A    between atoms: C_19  and  O_20
REMARK   10  A    between atoms: O_20  and  C_21
REMARK   11  A    between atoms: C_22  and  C_30
REMARK   12  A    between atoms: C_23  and  C_25
REMARK   13  A    between atoms: C_25  and  C_26
REMARK   14  A    between atoms: C_27  and  C_28
REMARK   15  A    between atoms: C_27  and  C_29
REMARK                            x       y       z     vdW  Elec       q    Type
REMARK                         _______ _______ _______ _____ _____    ______ ____
ROOT
ATOM      1  C   UNL     1       8.871  41.407   2.162  0.00  0.00    +0.000 C 
ATOM      2  C   UNL     1       9.537  42.298   3.188  0.00  0.00    +0.000 C 
ATOM      3  C   UNL     1      11.037  41.989   3.261  0.00  0.00    +0.000 C 
ATOM      4  C   UNL     1      11.303  40.544   3.606  0.00  0.00    +0.000 C 
ATOM      5  C   UNL     1      12.716  40.186   4.008  0.00  0.00    +0.000 C 
ATOM      6  O   UNL     1      11.628  40.238   4.954  0.00  0.00    +0.000 OA
ATOM      7  C   UNL     1      10.503  39.570   2.811  0.00  0.00    +0.000 C 
ATOM      8  C   UNL     1       8.996  39.989   2.692  0.00  0.00    +0.000 C 
ENDROOT
BRANCH   7   9
ATOM      9  C   UNL     1      10.633  38.070   2.946  0.00  0.00    +0.000 C 
ATOM     10  C   UNL     1      11.865  37.356   2.163  0.00  0.00    +0.000 C 
ATOM     11  O   UNL     1      10.481  37.101   1.910  0.00  0.00    +0.000 OA
ATOM     12  C   UNL     1       9.884  37.693   4.229  0.00  0.00    +0.000 C 
BRANCH  10  13
ATOM     13  C   UNL     1      12.753  36.241   2.704  0.00  0.00    +0.000 C 
BRANCH  13  14
ATOM     14  C   UNL     1      14.256  36.564   2.639  0.00  0.00    +0.000 C 
ATOM     15  C   UNL     1      15.092  36.175   1.639  0.00  0.00    +0.000 C 
ATOM     16  C   UNL     1      16.612  36.082   1.856  0.00  0.00    +0.000 C 
ATOM     17  C   UNL     1      14.538  35.442   0.435  0.00  0.00    +0.000 C 
ENDBRANCH  13  14
ENDBRANCH  10  13
ENDBRANCH   7   9
BRANCH   8  18
ATOM     18  O   UNL     1       8.253  39.296   1.690  0.00  0.00    +0.000 OA
ATOM     19  C   UNL     1       6.964  39.044   2.114  0.00  0.00    +0.000 C 
ENDBRANCH   8  18
BRANCH   1  20
ATOM     20  O   UNL     1       9.563  41.496   0.888  0.00  0.00    +0.000 OA
BRANCH  20  22
ATOM     21  N   UNL     1      10.425  43.204  -0.334  0.00  0.00    +0.000 N 
ATOM     22  C   UNL     1       9.301  42.625   0.181  0.00  0.00    +0.000 C 
ATOM     23  O   UNL     1       8.219  43.145   0.080  0.00  0.00    +0.000 OA
ATOM     24  H   UNL     1      10.198  43.997  -0.919  0.00  0.00    +0.000 HD
BRANCH  21  25
ATOM     25  C   UNL     1      11.833  42.795  -0.262  0.00  0.00    +0.000 C 
BRANCH  25  26
ATOM     26  C   UNL     1      12.300  42.378  -1.697  0.00  0.00    +0.000 C 
ATOM     27  O   UNL     1      11.998  41.309  -2.223  0.00  0.00    +0.000 OA
ATOM     28  N   UNL     1      13.028  43.280  -2.432  0.00  0.00    +0.000 N 
ATOM     29  H   UNL     1      13.262  44.216  -2.132  0.00  0.00    +0.000 HD
ATOM     30  H   UNL     1      13.063  43.112  -3.433  0.00  0.00    +0.000 HD
ENDBRANCH  25  26
BRANCH  25  32
ATOM     31  C   UNL     1      11.887  44.945   1.196  0.00  0.00    +0.000 C 
ATOM     32  C   UNL     1      12.704  43.937   0.385  0.00  0.00    +0.000 C 
ATOM     33  C   UNL     1      13.824  43.444   1.315  0.00  0.00    +0.000 C 
ENDBRANCH  25  32
ENDBRANCH  21  25
ENDBRANCH  20  22
ENDBRANCH   1  20
TORSDOF 9
ENDMDL
MODEL 7
REMARK VINA RESULT:    -4.319     19.176     21.898
REMARK INTER + INTRA:          -8.226
REMARK INTER:                  -7.245
REMARK INTRA:                  -0.982
REMARK UNBOUND:                -1.636
REMARK  Name = 
REMARK  15 active torsions:
REMARK  status: ('A' for Active; 'I' for Inactive)
REMARK    1  A    between atoms: C_1  and  C_2
REMARK    2  A    between atoms: C_2  and  C_3
REMARK    3  A    between atoms: C_2  and  C_4
REMARK    4  A    between atoms: C_4  and  C_5
REMARK    5  A    between atoms: C_4  and  N_8
REMARK    6  A    between atoms: C_9  and  O_11
REMARK    7  A    between atoms: O_11  and  C_12
REMARK    8  A    between atoms: C_18  and  C_22
REMARK    9  A    between atoms: C_19  and  O_20
REMARK   10  A    between atoms: O_20  and  C_21
REMARK   11  A    between atoms: C_22  and  C_30
REMARK   12  A    between atoms: C_23  and  C_25
REMARK   13  A    between atoms: C_25  and  C_26
REMARK   14  A    between atoms: C_27  and  C_28
REMARK   15  A    between atoms: C_27  and  C_29
REMARK                            x       y       z     vdW  Elec       q    Type
REMARK                         _______ _______ _______ _____ _____    ______ ____
ROOT
ATOM      1  C   UNL     1      12.539  42.597   1.894  0.00  0.00    +0.000 C 
ATOM      2  C   UNL     1      13.122  43.348   0.717  0.00  0.00    +0.000 C 
ATOM      3  C   UNL     1      12.406  42.941  -0.576  0.00  0.00    +0.000 C 
ATOM      4  C   UNL     1      12.500  41.457  -0.834  0.00  0.00    +0.000 C 
ATOM      5  C   UNL     1      12.108  40.977  -2.213  0.00  0.00    +0.000 C 
ATOM      6  O   UNL     1      13.478  41.011  -1.762  0.00  0.00    +0.000 OA
ATOM      7  C   UNL     1      12.180  40.611   0.350  0.00  0.00    +0.000 C 
ATOM      8  C   UNL     1      12.865  41.132   1.661  0.00  0.00    +0.000 C 
ENDROOT
BRANCH   7   9
ATOM      9  C   UNL     1      12.161  39.099   0.321  0.00  0.00    +0.000 C 
ATOM     10  C   UNL     1      13.570  38.331   0.575  0.00  0.00    +0.000 C 
ATOM     11  O   UNL     1      12.805  38.254  -0.630  0.00  0.00    +0.000 OA
ATOM     12  C   UNL     1      10.710  38.689   0.600  0.00  0.00    +0.000 C 
BRANCH  10  13
ATOM     13  C   UNL     1      13.777  37.081   1.423  0.00  0.00    +0.000 C 
BRANCH  13  14
ATOM     14  C   UNL     1      15.160  37.013   2.093  0.00  0.00    +0.000 C 
ATOM     15  C   UNL     1      16.206  36.271   1.642  0.00  0.00    +0.000 C 
ATOM     16  C   UNL     1      17.352  35.848   2.578  0.00  0.00    +0.000 C 
ATOM     17  C   UNL     1      16.082  35.503   0.342  0.00  0.00    +0.000 C 
ENDBRANCH  13  14
ENDBRANCH  10  13
ENDBRANCH   7   9
BRANCH   8  18
ATOM     18  O   UNL     1      12.352  40.580   2.873  0.00  0.00    +0.000 OA
ATOM     19  C   UNL     1      13.375  40.186   3.711  0.00  0.00    +0.000 C 
ENDBRANCH   8  18
BRANCH   1  20
ATOM     20  O   UNL     1      11.096  42.757   1.933  0.00  0.00    +0.000 OA
BRANCH  20  22
ATOM     21  N   UNL     1       9.392  43.293   3.335  0.00  0.00    +0.000 N 
ATOM     22  C   UNL     1      10.648  43.602   2.897  0.00  0.00    +0.000 C 
ATOM     23  O   UNL     1      11.228  44.585   3.282  0.00  0.00    +0.000 OA
ATOM     24  H   UNL     1       9.113  43.887   4.104  0.00  0.00    +0.000 HD
BRANCH  21  25
ATOM     25  C   UNL     1       8.483  42.208   2.949  0.00  0.00    +0.000 C 
BRANCH  25  26
ATOM     26  C   UNL     1       8.533  41.105   4.059  0.00  0.00    +0.000 C 
ATOM     27  O   UNL     1       9.397  40.232   4.107  0.00  0.00    +0.000 OA
ATOM     28  N   UNL     1       7.603  41.154   5.068  0.00  0.00    +0.000 N 
ATOM     29  H   UNL     1       6.901  41.873   5.172  0.00  0.00    +0.000 HD
ATOM     30  H   UNL     1       7.828  40.628   5.906  0.00  0.00    +0.000 HD
ENDBRANCH  25  26
BRANCH  25  32
ATOM     31  C   UNL     1       7.031  44.061   1.850  0.00  0.00    +0.000 C 
ATOM     32  C   UNL     1       7.038  42.773   2.676  0.00  0.00    +0.000 C 
ATOM     33  C   UNL     1       6.089  41.798   1.961  0.00  0.00    +0.000 C 
ENDBRANCH  25  32
ENDBRANCH  21  25
ENDBRANCH  20  22
ENDBRANCH   1  20
TORSDOF 9
ENDMDL
MODEL 8
REMARK VINA RESULT:    -4.302     18.052     20.923
REMARK INTER + INTRA:          -8.202
REMARK INTER:                  -6.897
REMARK INTRA:                  -1.305
REMARK UNBOUND:                -1.636
REMARK  Name = 
REMARK  15 active torsions:
REMARK  status: ('A' for Active; 'I' for Inactive)
REMARK    1  A    between atoms: C_1  and  C_2
REMARK    2  A    between atoms: C_2  and  C_3
REMARK    3  A    between atoms: C_2  and  C_4
REMARK    4  A    between atoms: C_4  and  C_5
REMARK    5  A    between atoms: C_4  and  N_8
REMARK    6  A    between atoms: C_9  and  O_11
REMARK    7  A    between atoms: O_11  and  C_12
REMARK    8  A    between atoms: C_18  and  C_22
REMARK    9  A    between atoms: C_19  and  O_20
REMARK   10  A    between atoms: O_20  and  C_21
REMARK   11  A    between atoms: C_22  and  C_30
REMARK   12  A    between atoms: C_23  and  C_25
REMARK   13  A    between atoms: C_25  and  C_26
REMARK   14  A    between atoms: C_27  and  C_28
REMARK   15  A    between atoms: C_27  and  C_29
REMARK                            x       y       z     vdW  Elec       q    Type
REMARK                         _______ _______ _______ _____ _____    ______ ____
ROOT
ATOM      1  C   UNL     1      12.976  40.512   1.231  0.00  0.00    +0.000 C 
ATOM      2  C   UNL     1      13.707  40.766   2.532  0.00  0.00    +0.000 C 
ATOM      3  C   UNL     1      13.055  39.969   3.668  0.00  0.00    +0.000 C 
ATOM      4  C   UNL     1      11.596  40.313   3.839  0.00  0.00    +0.000 C 
ATOM      5  C   UNL     1      10.924  39.833   5.105  0.00  0.00    +0.000 C 
ATOM      6  O   UNL     1      11.251  41.220   4.877  0.00  0.00    +0.000 OA
ATOM      7  C   UNL     1      10.821  40.335   2.567  0.00  0.00    +0.000 C 
ATOM      8  C   UNL     1      11.580  41.083   1.416  0.00  0.00    +0.000 C 
ENDROOT
BRANCH   7   9
ATOM      9  C   UNL     1       9.335  40.607   2.493  0.00  0.00    +0.000 C 
ATOM     10  C   UNL     1       8.334  39.360   2.780  0.00  0.00    +0.000 C 
ATOM     11  O   UNL     1       8.413  40.074   1.545  0.00  0.00    +0.000 OA
ATOM     12  C   UNL     1       9.170  42.117   2.704  0.00  0.00    +0.000 C 
BRANCH  10  13
ATOM     13  C   UNL     1       7.050  39.402   3.599  0.00  0.00    +0.000 C 
BRANCH  13  14
ATOM     14  C   UNL     1       6.983  38.329   4.698  0.00  0.00    +0.000 C 
ATOM     15  C   UNL     1       5.910  37.528   4.939  0.00  0.00    +0.000 C 
ATOM     16  C   UNL     1       5.704  36.855   6.308  0.00  0.00    +0.000 C 
ATOM     17  C   UNL     1       4.697  37.599   4.035  0.00  0.00    +0.000 C 
ENDBRANCH  13  14
ENDBRANCH  10  13
ENDBRANCH   7   9
BRANCH   8  18
ATOM     18  O   UNL     1      11.060  40.862   0.105  0.00  0.00    +0.000 OA
ATOM     19  C   UNL     1      11.213  41.984  -0.684  0.00  0.00    +0.000 C 
ENDBRANCH   8  18
BRANCH   1  20
ATOM     20  O   UNL     1      12.872  39.086   0.978  0.00  0.00    +0.000 OA
BRANCH  20  22
ATOM     21  N   UNL     1      14.155  37.446   0.074  0.00  0.00    +0.000 N 
ATOM     22  C   UNL     1      13.552  38.656  -0.115  0.00  0.00    +0.000 C 
ATOM     23  O   UNL     1      13.711  39.290  -1.127  0.00  0.00    +0.000 OA
ATOM     24  H   UNL     1      14.589  37.112  -0.776  0.00  0.00    +0.000 HD
BRANCH  21  25
ATOM     25  C   UNL     1      14.164  36.551   1.238  0.00  0.00    +0.000 C 
BRANCH  25  26
ATOM     26  C   UNL     1      12.845  35.709   1.223  0.00  0.00    +0.000 C 
ATOM     27  O   UNL     1      12.537  34.952   0.305  0.00  0.00    +0.000 OA
ATOM     28  N   UNL     1      12.023  35.767   2.320  0.00  0.00    +0.000 N 
ATOM     29  H   UNL     1      12.219  36.289   3.162  0.00  0.00    +0.000 HD
ATOM     30  H   UNL     1      11.350  35.012   2.412  0.00  0.00    +0.000 HD
ENDBRANCH  25  26
BRANCH  25  32
ATOM     31  C   UNL     1      16.109  35.507  -0.132  0.00  0.00    +0.000 C 
ATOM     32  C   UNL     1      15.477  35.681   1.250  0.00  0.00    +0.000 C 
ATOM     33  C   UNL     1      16.591  36.208   2.169  0.00  0.00    +0.000 C 
ENDBRANCH  25  32
ENDBRANCH  21  25
ENDBRANCH  20  22
ENDBRANCH   1  20
TORSDOF 9
ENDMDL
MODEL 9
REMARK VINA RESULT:    -3.818     19.473     22.672
REMARK INTER + INTRA:          -7.462
REMARK INTER:                  -6.295
REMARK INTRA:                  -1.168
REMARK UNBOUND:                -1.636
REMARK  Name = 
REMARK  15 active torsions:
REMARK  status: ('A' for Active; 'I' for Inactive)
REMARK    1  A    between atoms: C_1  and  C_2
REMARK    2  A    between atoms: C_2  and  C_3
REMARK    3  A    between atoms: C_2  and  C_4
REMARK    4  A    between atoms: C_4  and  C_5
REMARK    5  A    between atoms: C_4  and  N_8
REMARK    6  A    between atoms: C_9  and  O_11
REMARK    7  A    between atoms: O_11  and  C_12
REMARK    8  A    between atoms: C_18  and  C_22
REMARK    9  A    between atoms: C_19  and  O_20
REMARK   10  A    between atoms: O_20  and  C_21
REMARK   11  A    between atoms: C_22  and  C_30
REMARK   12  A    between atoms: C_23  and  C_25
REMARK   13  A    between atoms: C_25  and  C_26
REMARK   14  A    between atoms: C_27  and  C_28
REMARK   15  A    between atoms: C_27  and  C_29
REMARK                            x       y       z     vdW  Elec       q    Type
REMARK                         _______ _______ _______ _____ _____    ______ ____
ROOT
ATOM      1  C   UNL     1      12.549  42.266   1.771  0.00  0.00    +0.000 C 
ATOM      2  C   UNL     1      13.210  42.845   0.539  0.00  0.00    +0.000 C 
ATOM      3  C   UNL     1      12.560  42.273  -0.726  0.00  0.00    +0.000 C 
ATOM      4  C   UNL     1      12.643  40.767  -0.776  0.00  0.00    +0.000 C 
ATOM      5  C   UNL     1      12.321  40.109  -2.098  0.00  0.00    +0.000 C 
ATOM      6  O   UNL     1      13.664  40.190  -1.578  0.00  0.00    +0.000 OA
ATOM      7  C   UNL     1      12.243  40.093   0.491  0.00  0.00    +0.000 C 
ATOM      8  C   UNL     1      12.863  40.780   1.757  0.00  0.00    +0.000 C 
ENDROOT
BRANCH   7   9
ATOM      9  C   UNL     1      12.199  38.591   0.664  0.00  0.00    +0.000 C 
ATOM     10  C   UNL     1      13.610  37.829   0.923  0.00  0.00    +0.000 C 
ATOM     11  O   UNL     1      12.763  37.612  -0.207  0.00  0.00    +0.000 OA
ATOM     12  C   UNL     1      10.765  38.256   1.091  0.00  0.00    +0.000 C 
BRANCH  10  13
ATOM     13  C   UNL     1      13.858  36.697   1.914  0.00  0.00    +0.000 C 
BRANCH  13  14
ATOM     14  C   UNL     1      15.290  36.669   2.474  0.00  0.00    +0.000 C 
ATOM     15  C   UNL     1      16.361  36.121   1.842  0.00  0.00    +0.000 C 
ATOM     16  C   UNL     1      17.612  35.678   2.621  0.00  0.00    +0.000 C 
ATOM     17  C   UNL     1      16.205  35.557   0.444  0.00  0.00    +0.000 C 
ENDBRANCH  13  14
ENDBRANCH  10  13
ENDBRANCH   7   9
BRANCH   8  18
ATOM     18  O   UNL     1      12.273  40.401   3.000  0.00  0.00    +0.000 OA
ATOM     19  C   UNL     1      13.240  40.089   3.934  0.00  0.00    +0.000 C 
ENDBRANCH   8  18
BRANCH   1  20
ATOM     20  O   UNL     1      11.109  42.444   1.705  0.00  0.00    +0.000 OA
BRANCH  20  22
ATOM     21  N   UNL     1      10.054  44.452   1.620  0.00  0.00    +0.000 N 
ATOM     22  C   UNL     1      10.639  43.504   2.410  0.00  0.00    +0.000 C 
ATOM     23  O   UNL     1      10.789  43.672   3.593  0.00  0.00    +0.000 OA
ATOM     24  H   UNL     1       9.645  45.193   2.173  0.00  0.00    +0.000 HD
BRANCH  21  25
ATOM     25  C   UNL     1       9.843  44.492   0.168  0.00  0.00    +0.000 C 
BRANCH  25  26
ATOM     26  C   UNL     1       8.304  44.426  -0.109  0.00  0.00    +0.000 C 
ATOM     27  O   UNL     1       7.665  43.376  -0.129  0.00  0.00    +0.000 OA
ATOM     28  N   UNL     1       7.621  45.605  -0.271  0.00  0.00    +0.000 N 
ATOM     29  H   UNL     1       8.029  46.526  -0.192  0.00  0.00    +0.000 HD
ATOM     30  H   UNL     1       6.613  45.554  -0.155  0.00  0.00    +0.000 HD
ENDBRANCH  25  26
BRANCH  25  32
ATOM     31  C   UNL     1      11.892  46.091   0.199  0.00  0.00    +0.000 C 
ATOM     32  C   UNL     1      10.549  45.756  -0.455  0.00  0.00    +0.000 C 
ATOM     33  C   UNL     1      10.817  45.665  -1.965  0.00  0.00    +0.000 C 
ENDBRANCH  25  32
ENDBRANCH  21  25
ENDBRANCH  20  22
ENDBRANCH   1  20
TORSDOF 9
ENDMDL
